version 3
run General-0-20221215-22:34:58-8366
attr configname General
attr datetime 20221215-22:34:58
attr datetimef 20221215-223458
attr experiment General
attr inifile omnetpp.ini
attr iterationvars ""
attr iterationvarsd ""
attr iterationvarsf ""
attr measurement ""
attr network VideoStreamingShowcase
attr processid 8366
attr repetition 0
attr replication #0
attr resultdir results
attr runnumber 0
attr seedset 0
config image-path /home/daedluz/Programs/omnet/workspace/inet/images
config network VideoStreamingShowcase
config scheduler-class inet::RealTimeScheduler
config sim-time-limit 30s
config **.mac.promiscuous true
config **.crcMode "\"computed\""
config **.fcsMode "\"computed\""
config *.host1.eth[0].typename ExtUpperEthernetInterface
config *.host1.eth[0].device "\"tapa\""
config *.host1.eth[0].copyConfiguration "\"copyFromExt\""
config *.host1.numPcapRecorders 1
config *.host1.pcapRecorder[*].pcapFile "\"results/host1.pcap\""
config *.host2.numPcapRecorders 1
config *.host2.pcapRecorder[*].pcapFile "\"results/host2.pcap\""
config *.host2.wlan[*].mgmt.typename Ieee80211MgmtSta
config *.host2.wlan[*].agent.typename Ieee80211AgentSta
config *.host2.wlan[0].typename ExtUpperIeee80211Interface
config *.host2.wlan[0].device "\"tapb\""
config *.host2.wlan[0].mac.useAck false
config *.configurator.config "xml(\"<config> \t\t\t\t<interface hosts='router' names='eth0' address='192.168.2.99' netmask='255.255.255.0'/>                                 <interface hosts='router' names='eth1' address='192.168.3.99' netmask='255.255.255.0'/> \t\t\t\t<wireless hosts='host2 switch2'/> \t\t\t\t<interface hosts='host2' names='wlan0' address='192.168.3.20'/>                             </config>\")"
config *.router.ipv4.natTable.config "xml(\"<config>                                         <entry type='prerouting'                                         packetDataFilter='*Ipv4Header and destAddress=~192.168.2.99'                                         srcAddress='192.168.3.99' destAddress='192.168.3.20'/>                                         <entry type='prerouting'                                         packetDataFilter='*Ipv4Header and destAddress=~192.168.3.99'                                         srcAddress='192.168.2.99' destAddress='192.168.2.20'/>                                      </config>\")"
config *.radioMedium.backgroundNoise.typename IsotropicScalarBackgroundNoise
config *.radioMedium.backgroundNoise.power "-110 dBm"
config *.visualizer.*.interfaceTableVisualizer.displayInterfaceTables true
config *.visualizer.*.interfaceTableVisualizer.nodeFilter "\"not name=~switch*\""
config **.duplexMode true
config **.eth*.bitrate 10Mbps
config *.*.ipv4.arp.typename GlobalArp
config *.*.ipv4.routingTable.netmaskRoutes "\"\""
config *.switch2.wlan[*].mgmt.typename Ieee80211MgmtAp
config *.*.wlan[*].bitrate 54Mbps
config *.router.numPcapRecorders 1
config *.router.pcapRecorder[*].pcapFile "\"results/router.pcap\""
config *.area1Router.numPcapRecorders 1
config *.areaRouter.pcapRecorder[*].pcapFile "\"results/area1Router.pcap\""
config *.router.numWlanInterfaces 1

par VideoStreamingShowcase.host1.ethg$o[0].channel typename "\"inet.node.ethernet.Eth10M\""
par VideoStreamingShowcase.host1.ethg$o[0].channel disabled false
attr mutable ""
par VideoStreamingShowcase.host1.ethg$o[0].channel delay 5e-08s
attr mutable ""
attr unit s
par VideoStreamingShowcase.host1.ethg$o[0].channel datarate 1e+07bps
attr mutable ""
attr unit bps
par VideoStreamingShowcase.host1.ethg$o[0].channel ber 0
attr mutable ""
par VideoStreamingShowcase.host1.ethg$o[0].channel per 0
attr mutable ""
par VideoStreamingShowcase.host1.ethg$o[0].channel length 10m
attr unit m
par VideoStreamingShowcase.switch1.ethg$o[0].channel typename "\"inet.node.ethernet.Eth10M\""
par VideoStreamingShowcase.switch1.ethg$o[0].channel disabled false
attr mutable ""
par VideoStreamingShowcase.switch1.ethg$o[0].channel delay 5e-08s
attr mutable ""
attr unit s
par VideoStreamingShowcase.switch1.ethg$o[0].channel datarate 1e+07bps
attr mutable ""
attr unit bps
par VideoStreamingShowcase.switch1.ethg$o[0].channel ber 0
attr mutable ""
par VideoStreamingShowcase.switch1.ethg$o[0].channel per 0
attr mutable ""
par VideoStreamingShowcase.switch1.ethg$o[0].channel length 10m
attr unit m
par VideoStreamingShowcase.switch1.ethg$o[1].channel typename "\"inet.node.ethernet.Eth10M\""
par VideoStreamingShowcase.switch1.ethg$o[1].channel disabled false
attr mutable ""
par VideoStreamingShowcase.switch1.ethg$o[1].channel delay 5e-08s
attr mutable ""
attr unit s
par VideoStreamingShowcase.switch1.ethg$o[1].channel datarate 1e+07bps
attr mutable ""
attr unit bps
par VideoStreamingShowcase.switch1.ethg$o[1].channel ber 0
attr mutable ""
par VideoStreamingShowcase.switch1.ethg$o[1].channel per 0
attr mutable ""
par VideoStreamingShowcase.switch1.ethg$o[1].channel length 10m
attr unit m
par VideoStreamingShowcase.router.ethg$o[0].channel typename "\"inet.node.ethernet.Eth10M\""
par VideoStreamingShowcase.router.ethg$o[0].channel disabled false
attr mutable ""
par VideoStreamingShowcase.router.ethg$o[0].channel delay 5e-08s
attr mutable ""
attr unit s
par VideoStreamingShowcase.router.ethg$o[0].channel datarate 1e+07bps
attr mutable ""
attr unit bps
par VideoStreamingShowcase.router.ethg$o[0].channel ber 0
attr mutable ""
par VideoStreamingShowcase.router.ethg$o[0].channel per 0
attr mutable ""
par VideoStreamingShowcase.router.ethg$o[0].channel length 10m
attr unit m
par VideoStreamingShowcase.router.ethg$o[1].channel typename "\"inet.node.ethernet.Eth10M\""
par VideoStreamingShowcase.router.ethg$o[1].channel disabled false
attr mutable ""
par VideoStreamingShowcase.router.ethg$o[1].channel delay 5e-08s
attr mutable ""
attr unit s
par VideoStreamingShowcase.router.ethg$o[1].channel datarate 1e+07bps
attr mutable ""
attr unit bps
par VideoStreamingShowcase.router.ethg$o[1].channel ber 0
attr mutable ""
par VideoStreamingShowcase.router.ethg$o[1].channel per 0
attr mutable ""
par VideoStreamingShowcase.router.ethg$o[1].channel length 10m
attr unit m
par VideoStreamingShowcase.switch2.ethg$o[0].channel typename "\"inet.node.ethernet.Eth10M\""
par VideoStreamingShowcase.switch2.ethg$o[0].channel disabled false
attr mutable ""
par VideoStreamingShowcase.switch2.ethg$o[0].channel delay 5e-08s
attr mutable ""
attr unit s
par VideoStreamingShowcase.switch2.ethg$o[0].channel datarate 1e+07bps
attr mutable ""
attr unit bps
par VideoStreamingShowcase.switch2.ethg$o[0].channel ber 0
attr mutable ""
par VideoStreamingShowcase.switch2.ethg$o[0].channel per 0
attr mutable ""
par VideoStreamingShowcase.switch2.ethg$o[0].channel length 10m
attr unit m
par VideoStreamingShowcase.configurator typename "\"inet.networklayer.configurator.ipv4.Ipv4NetworkConfigurator\""
par VideoStreamingShowcase.configurator minLinkWeight 0.001
par VideoStreamingShowcase.configurator configureIsolatedNetworksSeparatly false
par VideoStreamingShowcase.configurator config "<config>...</config> at content:1"
par VideoStreamingShowcase.configurator assignAddresses true
par VideoStreamingShowcase.configurator assignUniqueAddresses true
par VideoStreamingShowcase.configurator assignDisjunctSubnetAddresses true
par VideoStreamingShowcase.configurator addStaticRoutes true
par VideoStreamingShowcase.configurator addDefaultRoutes true
par VideoStreamingShowcase.configurator addSubnetRoutes true
par VideoStreamingShowcase.configurator addDirectRoutes true
par VideoStreamingShowcase.configurator optimizeRoutes true
par VideoStreamingShowcase.configurator dumpTopology false
par VideoStreamingShowcase.configurator dumpLinks false
par VideoStreamingShowcase.configurator dumpAddresses false
par VideoStreamingShowcase.configurator dumpRoutes false
par VideoStreamingShowcase.configurator dumpConfig "\"\""
par VideoStreamingShowcase.visualizer.canvasVisualizer.sceneVisualizer typename "\"inet.visualizer.canvas.scene.SceneCanvasVisualizer\""
par VideoStreamingShowcase.visualizer.canvasVisualizer.sceneVisualizer visualizationTargetModule "\"^.^.^\""
par VideoStreamingShowcase.visualizer.canvasVisualizer.sceneVisualizer visualizationSubjectModule "\"^.^.^\""
par VideoStreamingShowcase.visualizer.canvasVisualizer.sceneVisualizer tags "\"\""
par VideoStreamingShowcase.visualizer.canvasVisualizer.sceneVisualizer physicalEnvironmentModule "\"physicalEnvironment\""
par VideoStreamingShowcase.visualizer.canvasVisualizer.sceneVisualizer networkNodeVisualizerModule "\"^.networkNodeVisualizer\""
par VideoStreamingShowcase.visualizer.canvasVisualizer.sceneVisualizer axisLength "nan m"
attr mutable ""
attr unit m
par VideoStreamingShowcase.visualizer.canvasVisualizer.sceneVisualizer animationSpeed 0
par VideoStreamingShowcase.visualizer.canvasVisualizer.sceneVisualizer sceneMinX "nan m"
attr unit m
par VideoStreamingShowcase.visualizer.canvasVisualizer.sceneVisualizer sceneMinY "nan m"
attr unit m
par VideoStreamingShowcase.visualizer.canvasVisualizer.sceneVisualizer sceneMinZ "nan m"
attr unit m
par VideoStreamingShowcase.visualizer.canvasVisualizer.sceneVisualizer sceneMaxX "nan m"
attr unit m
par VideoStreamingShowcase.visualizer.canvasVisualizer.sceneVisualizer sceneMaxY "nan m"
attr unit m
par VideoStreamingShowcase.visualizer.canvasVisualizer.sceneVisualizer sceneMaxZ "nan m"
attr unit m
par VideoStreamingShowcase.visualizer.canvasVisualizer.sceneVisualizer zIndex 0
par VideoStreamingShowcase.visualizer.canvasVisualizer.sceneVisualizer viewAngle "\"x right y down z out\""
attr mutable ""
par VideoStreamingShowcase.visualizer.canvasVisualizer.sceneVisualizer viewScale "\"1 1\""
attr mutable ""
par VideoStreamingShowcase.visualizer.canvasVisualizer.sceneVisualizer viewTranslation "\"0 0\""
attr mutable ""
par VideoStreamingShowcase.visualizer.canvasVisualizer.sceneVisualizer descriptionFigure "\"\""
par VideoStreamingShowcase.visualizer.canvasVisualizer.physicalEnvironmentVisualizer typename "\"inet.visualizer.canvas.environment.PhysicalEnvironmentCanvasVisualizer\""
par VideoStreamingShowcase.visualizer.canvasVisualizer.physicalEnvironmentVisualizer visualizationTargetModule "\"^.^.^\""
par VideoStreamingShowcase.visualizer.canvasVisualizer.physicalEnvironmentVisualizer visualizationSubjectModule "\"^.^.^\""
par VideoStreamingShowcase.visualizer.canvasVisualizer.physicalEnvironmentVisualizer tags "\"\""
par VideoStreamingShowcase.visualizer.canvasVisualizer.physicalEnvironmentVisualizer physicalEnvironmentModule "\"physicalEnvironment\""
par VideoStreamingShowcase.visualizer.canvasVisualizer.physicalEnvironmentVisualizer displayObjects true
par VideoStreamingShowcase.visualizer.canvasVisualizer.physicalEnvironmentVisualizer zIndex 0
par VideoStreamingShowcase.visualizer.canvasVisualizer.networkNodeVisualizer typename "\"inet.visualizer.canvas.scene.NetworkNodeCanvasVisualizer\""
par VideoStreamingShowcase.visualizer.canvasVisualizer.networkNodeVisualizer visualizationTargetModule "\"^.^.^\""
par VideoStreamingShowcase.visualizer.canvasVisualizer.networkNodeVisualizer visualizationSubjectModule "\"^.^.^\""
par VideoStreamingShowcase.visualizer.canvasVisualizer.networkNodeVisualizer tags "\"\""
par VideoStreamingShowcase.visualizer.canvasVisualizer.networkNodeVisualizer nodeFilter "\"*\""
attr mutable ""
par VideoStreamingShowcase.visualizer.canvasVisualizer.networkNodeVisualizer annotationSpacing 4
par VideoStreamingShowcase.visualizer.canvasVisualizer.networkNodeVisualizer placementPenalty 10
par VideoStreamingShowcase.visualizer.canvasVisualizer.networkNodeVisualizer zIndex 0
par VideoStreamingShowcase.visualizer.canvasVisualizer.networkConnectionVisualizer typename "\"inet.visualizer.canvas.scene.NetworkConnectionCanvasVisualizer\""
par VideoStreamingShowcase.visualizer.canvasVisualizer.networkConnectionVisualizer visualizationTargetModule "\"^.^.^\""
par VideoStreamingShowcase.visualizer.canvasVisualizer.networkConnectionVisualizer visualizationSubjectModule "\"^.^.^\""
par VideoStreamingShowcase.visualizer.canvasVisualizer.networkConnectionVisualizer tags "\"\""
par VideoStreamingShowcase.visualizer.canvasVisualizer.networkConnectionVisualizer displayNetworkConnections true
par VideoStreamingShowcase.visualizer.canvasVisualizer.networkConnectionVisualizer nodeFilter "\"\""
attr mutable ""
par VideoStreamingShowcase.visualizer.canvasVisualizer.networkConnectionVisualizer lineColor "\"black\""
par VideoStreamingShowcase.visualizer.canvasVisualizer.networkConnectionVisualizer lineStyle "\"solid\""
par VideoStreamingShowcase.visualizer.canvasVisualizer.networkConnectionVisualizer lineWidth 1
par VideoStreamingShowcase.visualizer.canvasVisualizer.networkConnectionVisualizer zIndex 0
par VideoStreamingShowcase.visualizer.canvasVisualizer.mobilityVisualizer typename "\"inet.visualizer.canvas.mobility.MobilityCanvasVisualizer\""
par VideoStreamingShowcase.visualizer.canvasVisualizer.mobilityVisualizer visualizationTargetModule "\"^.^.^\""
par VideoStreamingShowcase.visualizer.canvasVisualizer.mobilityVisualizer visualizationSubjectModule "\"^.^.^\""
par VideoStreamingShowcase.visualizer.canvasVisualizer.mobilityVisualizer tags "\"\""
par VideoStreamingShowcase.visualizer.canvasVisualizer.mobilityVisualizer networkNodeVisualizerModule "\"^.networkNodeVisualizer\""
par VideoStreamingShowcase.visualizer.canvasVisualizer.mobilityVisualizer displayMobility true
par VideoStreamingShowcase.visualizer.canvasVisualizer.mobilityVisualizer animationSpeed 0
par VideoStreamingShowcase.visualizer.canvasVisualizer.mobilityVisualizer moduleFilter "\"**.mobility\""
attr mutable ""
par VideoStreamingShowcase.visualizer.canvasVisualizer.mobilityVisualizer displayPositions false
par VideoStreamingShowcase.visualizer.canvasVisualizer.mobilityVisualizer positionCircleRadius 4
par VideoStreamingShowcase.visualizer.canvasVisualizer.mobilityVisualizer positionCircleLineWidth 1
par VideoStreamingShowcase.visualizer.canvasVisualizer.mobilityVisualizer positionCircleLineColor "\"dark\""
attr enum light,dark
par VideoStreamingShowcase.visualizer.canvasVisualizer.mobilityVisualizer positionCircleFillColor "\"dark\""
attr enum light,dark
par VideoStreamingShowcase.visualizer.canvasVisualizer.mobilityVisualizer displayOrientations false
par VideoStreamingShowcase.visualizer.canvasVisualizer.mobilityVisualizer orientationPieRadius 32
par VideoStreamingShowcase.visualizer.canvasVisualizer.mobilityVisualizer orientationPieSize 0.2
par VideoStreamingShowcase.visualizer.canvasVisualizer.mobilityVisualizer orientationPieOpacity 0.25
par VideoStreamingShowcase.visualizer.canvasVisualizer.mobilityVisualizer orientationLineColor "\"black\""
par VideoStreamingShowcase.visualizer.canvasVisualizer.mobilityVisualizer orientationLineStyle "\"solid\""
par VideoStreamingShowcase.visualizer.canvasVisualizer.mobilityVisualizer orientationLineWidth 1
par VideoStreamingShowcase.visualizer.canvasVisualizer.mobilityVisualizer orientationFillColor "\"blue\""
par VideoStreamingShowcase.visualizer.canvasVisualizer.mobilityVisualizer displayVelocities false
par VideoStreamingShowcase.visualizer.canvasVisualizer.mobilityVisualizer velocityArrowScale 1
par VideoStreamingShowcase.visualizer.canvasVisualizer.mobilityVisualizer velocityLineColor "\"black\""
par VideoStreamingShowcase.visualizer.canvasVisualizer.mobilityVisualizer velocityLineStyle "\"solid\""
par VideoStreamingShowcase.visualizer.canvasVisualizer.mobilityVisualizer velocityLineWidth 1
par VideoStreamingShowcase.visualizer.canvasVisualizer.mobilityVisualizer displayMovementTrails false
par VideoStreamingShowcase.visualizer.canvasVisualizer.mobilityVisualizer movementTrailLineColor "\"dark\""
attr enum light,dark
par VideoStreamingShowcase.visualizer.canvasVisualizer.mobilityVisualizer movementTrailLineStyle "\"solid\""
par VideoStreamingShowcase.visualizer.canvasVisualizer.mobilityVisualizer movementTrailLineWidth 1
par VideoStreamingShowcase.visualizer.canvasVisualizer.mobilityVisualizer trailLength 100
par VideoStreamingShowcase.visualizer.canvasVisualizer.mobilityVisualizer zIndex 0
par VideoStreamingShowcase.visualizer.canvasVisualizer.statisticVisualizer typename "\"inet.visualizer.canvas.common.StatisticCanvasVisualizer\""
par VideoStreamingShowcase.visualizer.canvasVisualizer.statisticVisualizer visualizationTargetModule "\"^.^.^\""
par VideoStreamingShowcase.visualizer.canvasVisualizer.statisticVisualizer visualizationSubjectModule "\"^.^.^\""
par VideoStreamingShowcase.visualizer.canvasVisualizer.statisticVisualizer tags "\"\""
par VideoStreamingShowcase.visualizer.canvasVisualizer.statisticVisualizer networkNodeVisualizerModule "\"^.networkNodeVisualizer\""
par VideoStreamingShowcase.visualizer.canvasVisualizer.statisticVisualizer displayStatistics true
par VideoStreamingShowcase.visualizer.canvasVisualizer.statisticVisualizer signalName "\"\""
par VideoStreamingShowcase.visualizer.canvasVisualizer.statisticVisualizer statisticName "\"\""
par VideoStreamingShowcase.visualizer.canvasVisualizer.statisticVisualizer statisticUnit "\"\""
par VideoStreamingShowcase.visualizer.canvasVisualizer.statisticVisualizer statisticExpression "\"\""
par VideoStreamingShowcase.visualizer.canvasVisualizer.statisticVisualizer sourceFilter "\"**\""
attr mutable ""
par VideoStreamingShowcase.visualizer.canvasVisualizer.statisticVisualizer format "\"%n: %v %u\""
attr mutable ""
par VideoStreamingShowcase.visualizer.canvasVisualizer.statisticVisualizer unit "\"\""
par VideoStreamingShowcase.visualizer.canvasVisualizer.statisticVisualizer font "\"<default>\""
par VideoStreamingShowcase.visualizer.canvasVisualizer.statisticVisualizer textColor "\"black\""
par VideoStreamingShowcase.visualizer.canvasVisualizer.statisticVisualizer backgroundColor "\"white\""
par VideoStreamingShowcase.visualizer.canvasVisualizer.statisticVisualizer opacity 1
par VideoStreamingShowcase.visualizer.canvasVisualizer.statisticVisualizer placementHint "\"top\""
par VideoStreamingShowcase.visualizer.canvasVisualizer.statisticVisualizer placementPriority 0
par VideoStreamingShowcase.visualizer.canvasVisualizer.statisticVisualizer zIndex 10
par VideoStreamingShowcase.visualizer.canvasVisualizer.statisticVisualizer propertyName "\"\""
par VideoStreamingShowcase.visualizer.canvasVisualizer.statisticVisualizer propertyIndex "\"\""
par VideoStreamingShowcase.visualizer.canvasVisualizer.infoVisualizer typename "\"inet.visualizer.canvas.common.InfoCanvasVisualizer\""
par VideoStreamingShowcase.visualizer.canvasVisualizer.infoVisualizer visualizationTargetModule "\"^.^.^\""
par VideoStreamingShowcase.visualizer.canvasVisualizer.infoVisualizer visualizationSubjectModule "\"^.^.^\""
par VideoStreamingShowcase.visualizer.canvasVisualizer.infoVisualizer tags "\"\""
par VideoStreamingShowcase.visualizer.canvasVisualizer.infoVisualizer networkNodeVisualizerModule "\"^.networkNodeVisualizer\""
par VideoStreamingShowcase.visualizer.canvasVisualizer.infoVisualizer displayInfos true
par VideoStreamingShowcase.visualizer.canvasVisualizer.infoVisualizer modules "\"\""
attr mutable ""
par VideoStreamingShowcase.visualizer.canvasVisualizer.infoVisualizer format "\"%t\""
attr mutable ""
par VideoStreamingShowcase.visualizer.canvasVisualizer.infoVisualizer font "\"<default>\""
par VideoStreamingShowcase.visualizer.canvasVisualizer.infoVisualizer textColor "\"black\""
par VideoStreamingShowcase.visualizer.canvasVisualizer.infoVisualizer backgroundColor "\"white\""
par VideoStreamingShowcase.visualizer.canvasVisualizer.infoVisualizer opacity 1
par VideoStreamingShowcase.visualizer.canvasVisualizer.infoVisualizer placementHint "\"top\""
par VideoStreamingShowcase.visualizer.canvasVisualizer.infoVisualizer placementPriority 0
par VideoStreamingShowcase.visualizer.canvasVisualizer.infoVisualizer zIndex 10
par VideoStreamingShowcase.visualizer.canvasVisualizer.energyStorageVisualizer typename "\"inet.visualizer.canvas.power.EnergyStorageCanvasVisualizer\""
par VideoStreamingShowcase.visualizer.canvasVisualizer.energyStorageVisualizer visualizationTargetModule "\"^.^.^\""
par VideoStreamingShowcase.visualizer.canvasVisualizer.energyStorageVisualizer visualizationSubjectModule "\"^.^.^\""
par VideoStreamingShowcase.visualizer.canvasVisualizer.energyStorageVisualizer tags "\"\""
par VideoStreamingShowcase.visualizer.canvasVisualizer.energyStorageVisualizer networkNodeVisualizerModule "\"^.networkNodeVisualizer\""
par VideoStreamingShowcase.visualizer.canvasVisualizer.energyStorageVisualizer displayEnergyStorages false
par VideoStreamingShowcase.visualizer.canvasVisualizer.energyStorageVisualizer energyStorageFilter "\"**\""
par VideoStreamingShowcase.visualizer.canvasVisualizer.energyStorageVisualizer color "\"green\""
par VideoStreamingShowcase.visualizer.canvasVisualizer.energyStorageVisualizer width 8
par VideoStreamingShowcase.visualizer.canvasVisualizer.energyStorageVisualizer height 24
par VideoStreamingShowcase.visualizer.canvasVisualizer.energyStorageVisualizer spacing 2
par VideoStreamingShowcase.visualizer.canvasVisualizer.energyStorageVisualizer placementHint "\"right\""
par VideoStreamingShowcase.visualizer.canvasVisualizer.energyStorageVisualizer placementPriority 0
par VideoStreamingShowcase.visualizer.canvasVisualizer.energyStorageVisualizer zIndex 10
par VideoStreamingShowcase.visualizer.canvasVisualizer.mediumVisualizer typename "\"inet.visualizer.canvas.physicallayer.MediumCanvasVisualizer\""
par VideoStreamingShowcase.visualizer.canvasVisualizer.mediumVisualizer visualizationTargetModule "\"^.^.^\""
par VideoStreamingShowcase.visualizer.canvasVisualizer.mediumVisualizer visualizationSubjectModule "\"^.^.^\""
par VideoStreamingShowcase.visualizer.canvasVisualizer.mediumVisualizer tags "\"\""
par VideoStreamingShowcase.visualizer.canvasVisualizer.mediumVisualizer mediumModule "\"radioMedium\""
par VideoStreamingShowcase.visualizer.canvasVisualizer.mediumVisualizer networkNodeVisualizerModule "\"^.networkNodeVisualizer\""
par VideoStreamingShowcase.visualizer.canvasVisualizer.mediumVisualizer nodeFilter "\"*\""
attr mutable ""
par VideoStreamingShowcase.visualizer.canvasVisualizer.mediumVisualizer interfaceFilter "\"*\""
attr mutable ""
par VideoStreamingShowcase.visualizer.canvasVisualizer.mediumVisualizer packetFilter "\"*\""
attr mutable ""
par VideoStreamingShowcase.visualizer.canvasVisualizer.mediumVisualizer packetDataFilter "\"*\""
attr mutable ""
par VideoStreamingShowcase.visualizer.canvasVisualizer.mediumVisualizer displaySignals false
par VideoStreamingShowcase.visualizer.canvasVisualizer.mediumVisualizer signalColor "\"dark\""
attr enum light,dark
par VideoStreamingShowcase.visualizer.canvasVisualizer.mediumVisualizer signalPropagationAnimationSpeed "nan "
attr mutable ""
par VideoStreamingShowcase.visualizer.canvasVisualizer.mediumVisualizer signalPropagationAnimationTime 1s
attr unit s
par VideoStreamingShowcase.visualizer.canvasVisualizer.mediumVisualizer signalPropagationAdditionalTime 0s
attr unit s
par VideoStreamingShowcase.visualizer.canvasVisualizer.mediumVisualizer signalTransmissionAnimationSpeed "nan "
attr mutable ""
par VideoStreamingShowcase.visualizer.canvasVisualizer.mediumVisualizer signalTransmissionAnimationTime 1s
attr unit s
par VideoStreamingShowcase.visualizer.canvasVisualizer.mediumVisualizer signalAnimationSpeedChangeTimeMode "\"realTime\""
attr enum realTime,animationTime,simulationTime
par VideoStreamingShowcase.visualizer.canvasVisualizer.mediumVisualizer signalAnimationSpeedChangeTime 1s
attr unit s
par VideoStreamingShowcase.visualizer.canvasVisualizer.mediumVisualizer displaySignalDepartures false
par VideoStreamingShowcase.visualizer.canvasVisualizer.mediumVisualizer signalDepartureImage "\"misc/signal_departure.png\""
par VideoStreamingShowcase.visualizer.canvasVisualizer.mediumVisualizer signalDeparturePlacementHint "\"topCenter\""
par VideoStreamingShowcase.visualizer.canvasVisualizer.mediumVisualizer signalDeparturePlacementPriority 1
par VideoStreamingShowcase.visualizer.canvasVisualizer.mediumVisualizer displaySignalArrivals false
par VideoStreamingShowcase.visualizer.canvasVisualizer.mediumVisualizer signalArrivalImage "\"misc/signal_arrival.png\""
par VideoStreamingShowcase.visualizer.canvasVisualizer.mediumVisualizer signalArrivalPlacementHint "\"topCenter\""
par VideoStreamingShowcase.visualizer.canvasVisualizer.mediumVisualizer signalArrivalPlacementPriority -1
par VideoStreamingShowcase.visualizer.canvasVisualizer.mediumVisualizer displayCommunicationRanges false
par VideoStreamingShowcase.visualizer.canvasVisualizer.mediumVisualizer communicationRangeLineColor "\"blue\""
par VideoStreamingShowcase.visualizer.canvasVisualizer.mediumVisualizer communicationRangeLineStyle "\"solid\""
par VideoStreamingShowcase.visualizer.canvasVisualizer.mediumVisualizer communicationRangeLineWidth 1
par VideoStreamingShowcase.visualizer.canvasVisualizer.mediumVisualizer displayInterferenceRanges false
par VideoStreamingShowcase.visualizer.canvasVisualizer.mediumVisualizer interferenceRangeLineColor "\"gray\""
par VideoStreamingShowcase.visualizer.canvasVisualizer.mediumVisualizer interferenceRangeLineStyle "\"solid\""
par VideoStreamingShowcase.visualizer.canvasVisualizer.mediumVisualizer interferenceRangeLineWidth 1
par VideoStreamingShowcase.visualizer.canvasVisualizer.mediumVisualizer autoPowerAxis true
par VideoStreamingShowcase.visualizer.canvasVisualizer.mediumVisualizer signalMinPower "inf dBmW"
attr unit dBmW
par VideoStreamingShowcase.visualizer.canvasVisualizer.mediumVisualizer signalMaxPower 0dBmW
attr unit dBmW
par VideoStreamingShowcase.visualizer.canvasVisualizer.mediumVisualizer signalMinPowerDensity "inf dBmWpMHz"
attr unit dBmWpMHz
par VideoStreamingShowcase.visualizer.canvasVisualizer.mediumVisualizer signalMaxPowerDensity "-inf dBmWpMHz"
attr unit dBmWpMHz
par VideoStreamingShowcase.visualizer.canvasVisualizer.mediumVisualizer autoTimeAxis true
par VideoStreamingShowcase.visualizer.canvasVisualizer.mediumVisualizer signalMinTime 0s
attr unit s
par VideoStreamingShowcase.visualizer.canvasVisualizer.mediumVisualizer signalMaxTime 0s
attr unit s
par VideoStreamingShowcase.visualizer.canvasVisualizer.mediumVisualizer autoFrequencyAxis true
par VideoStreamingShowcase.visualizer.canvasVisualizer.mediumVisualizer signalMinFrequency "inf Hz"
attr unit Hz
par VideoStreamingShowcase.visualizer.canvasVisualizer.mediumVisualizer signalMaxFrequency "-inf Hz"
attr unit Hz
par VideoStreamingShowcase.visualizer.canvasVisualizer.mediumVisualizer displayMainPowerDensityMap false
par VideoStreamingShowcase.visualizer.canvasVisualizer.mediumVisualizer mainPowerDensityMapPixmapDensity 1
par VideoStreamingShowcase.visualizer.canvasVisualizer.mediumVisualizer mainPowerDensityMapMinX 0
par VideoStreamingShowcase.visualizer.canvasVisualizer.mediumVisualizer mainPowerDensityMapMaxX "nan "
par VideoStreamingShowcase.visualizer.canvasVisualizer.mediumVisualizer mainPowerDensityMapMinY 0
par VideoStreamingShowcase.visualizer.canvasVisualizer.mediumVisualizer mainPowerDensityMapMaxY "nan "
par VideoStreamingShowcase.visualizer.canvasVisualizer.mediumVisualizer mainPowerDensityMapZ 0
par VideoStreamingShowcase.visualizer.canvasVisualizer.mediumVisualizer mainPowerDensityMapFigureXTickCount 3
par VideoStreamingShowcase.visualizer.canvasVisualizer.mediumVisualizer mainPowerDensityMapFigureYTickCount 3
par VideoStreamingShowcase.visualizer.canvasVisualizer.mediumVisualizer displayPowerDensityMaps false
par VideoStreamingShowcase.visualizer.canvasVisualizer.mediumVisualizer powerDensityMapMode "\"auto\""
attr enum total,signal,auto
par VideoStreamingShowcase.visualizer.canvasVisualizer.mediumVisualizer powerDensityMapPixelMode "\"mean\""
attr enum sample,partition,mean
par VideoStreamingShowcase.visualizer.canvasVisualizer.mediumVisualizer powerDensityMapApproximationSize 10
par VideoStreamingShowcase.visualizer.canvasVisualizer.mediumVisualizer powerDensityMapCenterFrequency "nan Hz"
attr mutable ""
attr unit Hz
par VideoStreamingShowcase.visualizer.canvasVisualizer.mediumVisualizer powerDensityMapBandwidth 0Hz
attr mutable ""
attr unit Hz
par VideoStreamingShowcase.visualizer.canvasVisualizer.mediumVisualizer powerDensityMapFigureWidth 200
par VideoStreamingShowcase.visualizer.canvasVisualizer.mediumVisualizer powerDensityMapFigureHeight 120
par VideoStreamingShowcase.visualizer.canvasVisualizer.mediumVisualizer powerDensityMapPixmapWidth 200
par VideoStreamingShowcase.visualizer.canvasVisualizer.mediumVisualizer powerDensityMapPixmapHeight 120
par VideoStreamingShowcase.visualizer.canvasVisualizer.mediumVisualizer powerDensityMapZ 0
par VideoStreamingShowcase.visualizer.canvasVisualizer.mediumVisualizer powerDensityMapFigureXTickCount 3
par VideoStreamingShowcase.visualizer.canvasVisualizer.mediumVisualizer powerDensityMapFigureYTickCount 3
par VideoStreamingShowcase.visualizer.canvasVisualizer.mediumVisualizer displaySpectrums false
par VideoStreamingShowcase.visualizer.canvasVisualizer.mediumVisualizer spectrumMode "\"auto\""
attr enum total,signal,auto
par VideoStreamingShowcase.visualizer.canvasVisualizer.mediumVisualizer spectrumFigureWidth 200
par VideoStreamingShowcase.visualizer.canvasVisualizer.mediumVisualizer spectrumFigureHeight 120
par VideoStreamingShowcase.visualizer.canvasVisualizer.mediumVisualizer spectrumFigureXTickCount 3
par VideoStreamingShowcase.visualizer.canvasVisualizer.mediumVisualizer spectrumFigureYTickCount 5
par VideoStreamingShowcase.visualizer.canvasVisualizer.mediumVisualizer spectrumFigureInterpolationSize 5
par VideoStreamingShowcase.visualizer.canvasVisualizer.mediumVisualizer spectrumPlacementHint "\"bottomCenter\""
par VideoStreamingShowcase.visualizer.canvasVisualizer.mediumVisualizer spectrumPlacementPriority -1
par VideoStreamingShowcase.visualizer.canvasVisualizer.mediumVisualizer displaySpectrograms false
par VideoStreamingShowcase.visualizer.canvasVisualizer.mediumVisualizer spectrogramMode "\"auto\""
attr enum total,signal,auto
par VideoStreamingShowcase.visualizer.canvasVisualizer.mediumVisualizer spectrogramPixelMode "\"mean\""
attr enum sample,partition,mean
par VideoStreamingShowcase.visualizer.canvasVisualizer.mediumVisualizer spectrogramFigureWidth 200
par VideoStreamingShowcase.visualizer.canvasVisualizer.mediumVisualizer spectrogramFigureHeight 120
par VideoStreamingShowcase.visualizer.canvasVisualizer.mediumVisualizer spectrogramPixmapWidth 200
par VideoStreamingShowcase.visualizer.canvasVisualizer.mediumVisualizer spectrogramPixmapHeight 120
par VideoStreamingShowcase.visualizer.canvasVisualizer.mediumVisualizer spectrogramFigureXTickCount 3
par VideoStreamingShowcase.visualizer.canvasVisualizer.mediumVisualizer spectrogramFigureYTickCount 5
par VideoStreamingShowcase.visualizer.canvasVisualizer.mediumVisualizer spectrogramPlacementHint "\"bottomCenter\""
par VideoStreamingShowcase.visualizer.canvasVisualizer.mediumVisualizer spectrogramPlacementPriority -1
par VideoStreamingShowcase.visualizer.canvasVisualizer.mediumVisualizer zIndex 0
par VideoStreamingShowcase.visualizer.canvasVisualizer.mediumVisualizer signalShape "\"ring\""
attr enum ring,sphere
par VideoStreamingShowcase.visualizer.canvasVisualizer.mediumVisualizer signalOpacity 0.5
par VideoStreamingShowcase.visualizer.canvasVisualizer.mediumVisualizer signalRingCount 20
par VideoStreamingShowcase.visualizer.canvasVisualizer.mediumVisualizer signalRingSize 50m
attr unit m
par VideoStreamingShowcase.visualizer.canvasVisualizer.mediumVisualizer signalFadingDistance 50m
attr unit m
par VideoStreamingShowcase.visualizer.canvasVisualizer.mediumVisualizer signalFadingFactor 1.2
par VideoStreamingShowcase.visualizer.canvasVisualizer.mediumVisualizer signalWaveCount 20
par VideoStreamingShowcase.visualizer.canvasVisualizer.mediumVisualizer signalWaveLength 50m
attr unit m
par VideoStreamingShowcase.visualizer.canvasVisualizer.mediumVisualizer signalWaveWidth 10m
attr unit m
par VideoStreamingShowcase.visualizer.canvasVisualizer.mediumVisualizer signalWaveFadingAnimationSpeedFactor 1
par VideoStreamingShowcase.visualizer.canvasVisualizer.mediumVisualizer displayCommunicationHeat false
par VideoStreamingShowcase.visualizer.canvasVisualizer.obstacleLossVisualizer typename "\"inet.visualizer.canvas.physicallayer.TracingObstacleLossCanvasVisualizer\""
par VideoStreamingShowcase.visualizer.canvasVisualizer.obstacleLossVisualizer visualizationTargetModule "\"^.^.^\""
par VideoStreamingShowcase.visualizer.canvasVisualizer.obstacleLossVisualizer visualizationSubjectModule "\"^.^.^\""
par VideoStreamingShowcase.visualizer.canvasVisualizer.obstacleLossVisualizer tags "\"\""
par VideoStreamingShowcase.visualizer.canvasVisualizer.obstacleLossVisualizer displayIntersections false
par VideoStreamingShowcase.visualizer.canvasVisualizer.obstacleLossVisualizer intersectionLineColor "\"red\""
par VideoStreamingShowcase.visualizer.canvasVisualizer.obstacleLossVisualizer intersectionLineStyle "\"solid\""
par VideoStreamingShowcase.visualizer.canvasVisualizer.obstacleLossVisualizer intersectionLineWidth 1
par VideoStreamingShowcase.visualizer.canvasVisualizer.obstacleLossVisualizer displayFaceNormalVectors false
par VideoStreamingShowcase.visualizer.canvasVisualizer.obstacleLossVisualizer faceNormalLineColor "\"grey\""
par VideoStreamingShowcase.visualizer.canvasVisualizer.obstacleLossVisualizer faceNormalLineStyle "\"solid\""
par VideoStreamingShowcase.visualizer.canvasVisualizer.obstacleLossVisualizer faceNormalLineWidth 1
par VideoStreamingShowcase.visualizer.canvasVisualizer.obstacleLossVisualizer fadeOutMode "\"realTime\""
attr enum realTime,animationTime,simulationTime
par VideoStreamingShowcase.visualizer.canvasVisualizer.obstacleLossVisualizer fadeOutTime 1s
attr unit s
par VideoStreamingShowcase.visualizer.canvasVisualizer.obstacleLossVisualizer fadeOutAnimationSpeed 0
par VideoStreamingShowcase.visualizer.canvasVisualizer.obstacleLossVisualizer zIndex 0
par VideoStreamingShowcase.visualizer.canvasVisualizer.packetDropVisualizer typename "\"inet.visualizer.canvas.common.PacketDropCanvasVisualizer\""
par VideoStreamingShowcase.visualizer.canvasVisualizer.packetDropVisualizer visualizationTargetModule "\"^.^.^\""
par VideoStreamingShowcase.visualizer.canvasVisualizer.packetDropVisualizer visualizationSubjectModule "\"^.^.^\""
par VideoStreamingShowcase.visualizer.canvasVisualizer.packetDropVisualizer tags "\"\""
par VideoStreamingShowcase.visualizer.canvasVisualizer.packetDropVisualizer displayPacketDrops false
par VideoStreamingShowcase.visualizer.canvasVisualizer.packetDropVisualizer nodeFilter "\"*\""
attr mutable ""
par VideoStreamingShowcase.visualizer.canvasVisualizer.packetDropVisualizer interfaceFilter "\"*\""
attr mutable ""
par VideoStreamingShowcase.visualizer.canvasVisualizer.packetDropVisualizer packetFilter "\"*\""
attr mutable ""
par VideoStreamingShowcase.visualizer.canvasVisualizer.packetDropVisualizer packetDataFilter "\"*\""
attr mutable ""
par VideoStreamingShowcase.visualizer.canvasVisualizer.packetDropVisualizer detailsFilter "\"*\""
attr mutable ""
par VideoStreamingShowcase.visualizer.canvasVisualizer.packetDropVisualizer icon "\"msg/packet_s\""
par VideoStreamingShowcase.visualizer.canvasVisualizer.packetDropVisualizer iconTintAmount 1
par VideoStreamingShowcase.visualizer.canvasVisualizer.packetDropVisualizer iconTintColor "\"dark\""
par VideoStreamingShowcase.visualizer.canvasVisualizer.packetDropVisualizer labelFormat "\"%n\""
attr mutable ""
par VideoStreamingShowcase.visualizer.canvasVisualizer.packetDropVisualizer labelFont "\"<default>\""
par VideoStreamingShowcase.visualizer.canvasVisualizer.packetDropVisualizer labelColor "\"black\""
par VideoStreamingShowcase.visualizer.canvasVisualizer.packetDropVisualizer fadeOutMode "\"realTime\""
attr enum realTime,animationTime,simulationTime
par VideoStreamingShowcase.visualizer.canvasVisualizer.packetDropVisualizer fadeOutTime 1s
attr unit s
par VideoStreamingShowcase.visualizer.canvasVisualizer.packetDropVisualizer fadeOutAnimationSpeed 0
par VideoStreamingShowcase.visualizer.canvasVisualizer.packetDropVisualizer zIndex 10
par VideoStreamingShowcase.visualizer.canvasVisualizer.packetDropVisualizer dx 32
par VideoStreamingShowcase.visualizer.canvasVisualizer.packetDropVisualizer dy 64
par VideoStreamingShowcase.visualizer.canvasVisualizer.packetFlowVisualizer typename "\"inet.visualizer.canvas.flow.PacketFlowCanvasVisualizer\""
par VideoStreamingShowcase.visualizer.canvasVisualizer.packetFlowVisualizer visualizationTargetModule "\"^.^.^\""
par VideoStreamingShowcase.visualizer.canvasVisualizer.packetFlowVisualizer visualizationSubjectModule "\"^.^.^\""
par VideoStreamingShowcase.visualizer.canvasVisualizer.packetFlowVisualizer tags "\"\""
par VideoStreamingShowcase.visualizer.canvasVisualizer.packetFlowVisualizer displayRoutes false
par VideoStreamingShowcase.visualizer.canvasVisualizer.packetFlowVisualizer startPathSignal "\"packetFlowStarted\""
par VideoStreamingShowcase.visualizer.canvasVisualizer.packetFlowVisualizer extendPathSignal "\"packetReceivedFromLower\""
par VideoStreamingShowcase.visualizer.canvasVisualizer.packetFlowVisualizer endPathSignal "\"packetFlowEnded\""
par VideoStreamingShowcase.visualizer.canvasVisualizer.packetFlowVisualizer nodeFilter "\"*\""
attr mutable ""
par VideoStreamingShowcase.visualizer.canvasVisualizer.packetFlowVisualizer packetFilter "\"*\""
attr mutable ""
par VideoStreamingShowcase.visualizer.canvasVisualizer.packetFlowVisualizer packetDataFilter "\"*\""
attr mutable ""
par VideoStreamingShowcase.visualizer.canvasVisualizer.packetFlowVisualizer lineColor "\"dark\""
attr enum light,dark
par VideoStreamingShowcase.visualizer.canvasVisualizer.packetFlowVisualizer lineStyle "\"dashed\""
par VideoStreamingShowcase.visualizer.canvasVisualizer.packetFlowVisualizer lineWidth 3
par VideoStreamingShowcase.visualizer.canvasVisualizer.packetFlowVisualizer lineSmooth false
par VideoStreamingShowcase.visualizer.canvasVisualizer.packetFlowVisualizer lineShift 16
par VideoStreamingShowcase.visualizer.canvasVisualizer.packetFlowVisualizer lineShiftMode "\"normal\""
par VideoStreamingShowcase.visualizer.canvasVisualizer.packetFlowVisualizer lineContactSpacing 3
par VideoStreamingShowcase.visualizer.canvasVisualizer.packetFlowVisualizer lineContactMode "\"rectangular\""
attr enum circular,rectangular
par VideoStreamingShowcase.visualizer.canvasVisualizer.packetFlowVisualizer labelFormat "\"%L %p pk (%l)\""
par VideoStreamingShowcase.visualizer.canvasVisualizer.packetFlowVisualizer labelFont "\"<default>, 8px\""
par VideoStreamingShowcase.visualizer.canvasVisualizer.packetFlowVisualizer labelColor "\"\""
par VideoStreamingShowcase.visualizer.canvasVisualizer.packetFlowVisualizer fadeOutMode "\"realTime\""
attr enum realTime,animationTime,simulationTime
par VideoStreamingShowcase.visualizer.canvasVisualizer.packetFlowVisualizer fadeOutTime 0s
attr unit s
par VideoStreamingShowcase.visualizer.canvasVisualizer.packetFlowVisualizer fadeOutAnimationSpeed 0
par VideoStreamingShowcase.visualizer.canvasVisualizer.packetFlowVisualizer zIndex 4
par VideoStreamingShowcase.visualizer.canvasVisualizer.queueVisualizer typename "\"inet.visualizer.canvas.common.QueueCanvasVisualizer\""
par VideoStreamingShowcase.visualizer.canvasVisualizer.queueVisualizer visualizationTargetModule "\"^.^.^\""
par VideoStreamingShowcase.visualizer.canvasVisualizer.queueVisualizer visualizationSubjectModule "\"^.^.^\""
par VideoStreamingShowcase.visualizer.canvasVisualizer.queueVisualizer tags "\"\""
par VideoStreamingShowcase.visualizer.canvasVisualizer.queueVisualizer networkNodeVisualizerModule "\"^.networkNodeVisualizer\""
par VideoStreamingShowcase.visualizer.canvasVisualizer.queueVisualizer displayQueues false
par VideoStreamingShowcase.visualizer.canvasVisualizer.queueVisualizer queueFilter "\"**\""
par VideoStreamingShowcase.visualizer.canvasVisualizer.queueVisualizer color "\"blue\""
par VideoStreamingShowcase.visualizer.canvasVisualizer.queueVisualizer width 8
par VideoStreamingShowcase.visualizer.canvasVisualizer.queueVisualizer height 24
par VideoStreamingShowcase.visualizer.canvasVisualizer.queueVisualizer spacing 2
par VideoStreamingShowcase.visualizer.canvasVisualizer.queueVisualizer placementHint "\"right\""
par VideoStreamingShowcase.visualizer.canvasVisualizer.queueVisualizer placementPriority 0
par VideoStreamingShowcase.visualizer.canvasVisualizer.queueVisualizer zIndex 10
par VideoStreamingShowcase.visualizer.canvasVisualizer.radioVisualizer typename "\"inet.visualizer.canvas.physicallayer.RadioCanvasVisualizer\""
par VideoStreamingShowcase.visualizer.canvasVisualizer.radioVisualizer visualizationTargetModule "\"^.^.^\""
par VideoStreamingShowcase.visualizer.canvasVisualizer.radioVisualizer visualizationSubjectModule "\"^.^.^\""
par VideoStreamingShowcase.visualizer.canvasVisualizer.radioVisualizer tags "\"\""
par VideoStreamingShowcase.visualizer.canvasVisualizer.radioVisualizer networkNodeVisualizerModule "\"^.networkNodeVisualizer\""
par VideoStreamingShowcase.visualizer.canvasVisualizer.radioVisualizer displayRadios false
par VideoStreamingShowcase.visualizer.canvasVisualizer.radioVisualizer displayRadioMode true
par VideoStreamingShowcase.visualizer.canvasVisualizer.radioVisualizer displayReceptionState true
par VideoStreamingShowcase.visualizer.canvasVisualizer.radioVisualizer displayTransmissionState true
par VideoStreamingShowcase.visualizer.canvasVisualizer.radioVisualizer displayAntennaLobes false
par VideoStreamingShowcase.visualizer.canvasVisualizer.radioVisualizer radioFilter "\"**\""
attr mutable ""
par VideoStreamingShowcase.visualizer.canvasVisualizer.radioVisualizer radioModeImages "\"block/process_vs block/timer_vs block/wrx_vs block/wtx_vs block/wrxtx_vs block/cogwheel_vs\""
par VideoStreamingShowcase.visualizer.canvasVisualizer.radioVisualizer receptionStateImages "\"- - misc/receiving misc/receiving\""
par VideoStreamingShowcase.visualizer.canvasVisualizer.radioVisualizer transmissionStateImages "\"- - misc/transmitting\""
par VideoStreamingShowcase.visualizer.canvasVisualizer.radioVisualizer width 16
par VideoStreamingShowcase.visualizer.canvasVisualizer.radioVisualizer height 16
par VideoStreamingShowcase.visualizer.canvasVisualizer.radioVisualizer placementHint "\"bottomRight\""
par VideoStreamingShowcase.visualizer.canvasVisualizer.radioVisualizer placementPriority 0
par VideoStreamingShowcase.visualizer.canvasVisualizer.radioVisualizer antennaLobeNormalize false
par VideoStreamingShowcase.visualizer.canvasVisualizer.radioVisualizer antennaLobeRelativeLabels false
par VideoStreamingShowcase.visualizer.canvasVisualizer.radioVisualizer antennaLobePlaneGlobal true
par VideoStreamingShowcase.visualizer.canvasVisualizer.radioVisualizer antennaLobePlane "\"view\""
attr enum view,xy,xz,yz
par VideoStreamingShowcase.visualizer.canvasVisualizer.radioVisualizer antennaLobeMode "\"logarithmic\""
attr enum logarithmic,linear
par VideoStreamingShowcase.visualizer.canvasVisualizer.radioVisualizer antennaLobeLogarithmicBase 10
par VideoStreamingShowcase.visualizer.canvasVisualizer.radioVisualizer antennaLobeLogarithmicScale 100
par VideoStreamingShowcase.visualizer.canvasVisualizer.radioVisualizer antennaLobeRadius 100
par VideoStreamingShowcase.visualizer.canvasVisualizer.radioVisualizer antennaLobeStep 10deg
attr unit deg
par VideoStreamingShowcase.visualizer.canvasVisualizer.radioVisualizer antennaLobeOpacity 0.25
par VideoStreamingShowcase.visualizer.canvasVisualizer.radioVisualizer antennaLobeLineSmooth true
par VideoStreamingShowcase.visualizer.canvasVisualizer.radioVisualizer antennaLobeLineColor "\"black\""
par VideoStreamingShowcase.visualizer.canvasVisualizer.radioVisualizer antennaLobeLineStyle "\"solid\""
par VideoStreamingShowcase.visualizer.canvasVisualizer.radioVisualizer antennaLobeLineWidth 1
par VideoStreamingShowcase.visualizer.canvasVisualizer.radioVisualizer antennaLobeFillColor "\"white\""
par VideoStreamingShowcase.visualizer.canvasVisualizer.radioVisualizer zIndex 10
par VideoStreamingShowcase.visualizer.canvasVisualizer.physicalLinkVisualizer typename "\"inet.visualizer.canvas.physicallayer.PhysicalLinkCanvasVisualizer\""
par VideoStreamingShowcase.visualizer.canvasVisualizer.physicalLinkVisualizer visualizationTargetModule "\"^.^.^\""
par VideoStreamingShowcase.visualizer.canvasVisualizer.physicalLinkVisualizer visualizationSubjectModule "\"^.^.^\""
par VideoStreamingShowcase.visualizer.canvasVisualizer.physicalLinkVisualizer tags "\"\""
par VideoStreamingShowcase.visualizer.canvasVisualizer.physicalLinkVisualizer displayLinks false
par VideoStreamingShowcase.visualizer.canvasVisualizer.physicalLinkVisualizer activityLevel "\"service\""
attr enum service,peer,protocol
par VideoStreamingShowcase.visualizer.canvasVisualizer.physicalLinkVisualizer nodeFilter "\"*\""
attr mutable ""
par VideoStreamingShowcase.visualizer.canvasVisualizer.physicalLinkVisualizer interfaceFilter "\"*\""
attr mutable ""
par VideoStreamingShowcase.visualizer.canvasVisualizer.physicalLinkVisualizer packetFilter "\"*\""
attr mutable ""
par VideoStreamingShowcase.visualizer.canvasVisualizer.physicalLinkVisualizer packetDataFilter "\"*\""
attr mutable ""
par VideoStreamingShowcase.visualizer.canvasVisualizer.physicalLinkVisualizer lineColor "\"olive\""
par VideoStreamingShowcase.visualizer.canvasVisualizer.physicalLinkVisualizer lineStyle "\"dotted\""
par VideoStreamingShowcase.visualizer.canvasVisualizer.physicalLinkVisualizer lineWidth 3
par VideoStreamingShowcase.visualizer.canvasVisualizer.physicalLinkVisualizer lineShift 16
par VideoStreamingShowcase.visualizer.canvasVisualizer.physicalLinkVisualizer lineShiftMode "\"normal\""
par VideoStreamingShowcase.visualizer.canvasVisualizer.physicalLinkVisualizer lineContactSpacing 3
par VideoStreamingShowcase.visualizer.canvasVisualizer.physicalLinkVisualizer lineContactMode "\"rectangular\""
attr enum circular,rectangular
par VideoStreamingShowcase.visualizer.canvasVisualizer.physicalLinkVisualizer labelFormat "\"%n\""
par VideoStreamingShowcase.visualizer.canvasVisualizer.physicalLinkVisualizer labelFont "\"<default>, 8px\""
par VideoStreamingShowcase.visualizer.canvasVisualizer.physicalLinkVisualizer labelColor "\"olive\""
par VideoStreamingShowcase.visualizer.canvasVisualizer.physicalLinkVisualizer fadeOutMode "\"realTime\""
attr enum realTime,animationTime,simulationTime
par VideoStreamingShowcase.visualizer.canvasVisualizer.physicalLinkVisualizer fadeOutTime 1s
attr unit s
par VideoStreamingShowcase.visualizer.canvasVisualizer.physicalLinkVisualizer fadeOutAnimationSpeed 0
par VideoStreamingShowcase.visualizer.canvasVisualizer.physicalLinkVisualizer holdAnimationTime 0s
attr unit s
par VideoStreamingShowcase.visualizer.canvasVisualizer.physicalLinkVisualizer zIndex 1
par VideoStreamingShowcase.visualizer.canvasVisualizer.interfaceTableVisualizer typename "\"inet.visualizer.canvas.linklayer.InterfaceTableCanvasVisualizer\""
par VideoStreamingShowcase.visualizer.canvasVisualizer.interfaceTableVisualizer visualizationTargetModule "\"^.^.^\""
par VideoStreamingShowcase.visualizer.canvasVisualizer.interfaceTableVisualizer visualizationSubjectModule "\"^.^.^\""
par VideoStreamingShowcase.visualizer.canvasVisualizer.interfaceTableVisualizer tags "\"\""
par VideoStreamingShowcase.visualizer.canvasVisualizer.interfaceTableVisualizer networkNodeVisualizerModule "\"^.networkNodeVisualizer\""
par VideoStreamingShowcase.visualizer.canvasVisualizer.interfaceTableVisualizer displayInterfaceTables true
par VideoStreamingShowcase.visualizer.canvasVisualizer.interfaceTableVisualizer displayWiredInterfacesAtConnections true
par VideoStreamingShowcase.visualizer.canvasVisualizer.interfaceTableVisualizer displayBackground false
par VideoStreamingShowcase.visualizer.canvasVisualizer.interfaceTableVisualizer nodeFilter "\"not name=~switch*\""
attr mutable ""
par VideoStreamingShowcase.visualizer.canvasVisualizer.interfaceTableVisualizer interfaceFilter "\"not(lo*)\""
attr mutable ""
par VideoStreamingShowcase.visualizer.canvasVisualizer.interfaceTableVisualizer format "\"%N %\\\\%a/%l\""
attr mutable ""
par VideoStreamingShowcase.visualizer.canvasVisualizer.interfaceTableVisualizer placementHint "\"top\""
par VideoStreamingShowcase.visualizer.canvasVisualizer.interfaceTableVisualizer placementPriority 0
par VideoStreamingShowcase.visualizer.canvasVisualizer.interfaceTableVisualizer font "\"<default>\""
par VideoStreamingShowcase.visualizer.canvasVisualizer.interfaceTableVisualizer textColor "\"#005030\""
par VideoStreamingShowcase.visualizer.canvasVisualizer.interfaceTableVisualizer backgroundColor "\"white\""
par VideoStreamingShowcase.visualizer.canvasVisualizer.interfaceTableVisualizer opacity 1
par VideoStreamingShowcase.visualizer.canvasVisualizer.interfaceTableVisualizer zIndex 10
par VideoStreamingShowcase.visualizer.canvasVisualizer.dataLinkVisualizer typename "\"inet.visualizer.canvas.linklayer.DataLinkCanvasVisualizer\""
par VideoStreamingShowcase.visualizer.canvasVisualizer.dataLinkVisualizer visualizationTargetModule "\"^.^.^\""
par VideoStreamingShowcase.visualizer.canvasVisualizer.dataLinkVisualizer visualizationSubjectModule "\"^.^.^\""
par VideoStreamingShowcase.visualizer.canvasVisualizer.dataLinkVisualizer tags "\"\""
par VideoStreamingShowcase.visualizer.canvasVisualizer.dataLinkVisualizer displayLinks false
par VideoStreamingShowcase.visualizer.canvasVisualizer.dataLinkVisualizer activityLevel "\"service\""
attr enum service,peer,protocol
par VideoStreamingShowcase.visualizer.canvasVisualizer.dataLinkVisualizer nodeFilter "\"*\""
attr mutable ""
par VideoStreamingShowcase.visualizer.canvasVisualizer.dataLinkVisualizer interfaceFilter "\"*\""
attr mutable ""
par VideoStreamingShowcase.visualizer.canvasVisualizer.dataLinkVisualizer packetFilter "\"*\""
attr mutable ""
par VideoStreamingShowcase.visualizer.canvasVisualizer.dataLinkVisualizer packetDataFilter "\"*\""
attr mutable ""
par VideoStreamingShowcase.visualizer.canvasVisualizer.dataLinkVisualizer lineColor "\"darkcyan\""
par VideoStreamingShowcase.visualizer.canvasVisualizer.dataLinkVisualizer lineStyle "\"solid\""
par VideoStreamingShowcase.visualizer.canvasVisualizer.dataLinkVisualizer lineWidth 3
par VideoStreamingShowcase.visualizer.canvasVisualizer.dataLinkVisualizer lineShift 16
par VideoStreamingShowcase.visualizer.canvasVisualizer.dataLinkVisualizer lineShiftMode "\"normal\""
par VideoStreamingShowcase.visualizer.canvasVisualizer.dataLinkVisualizer lineContactSpacing 3
par VideoStreamingShowcase.visualizer.canvasVisualizer.dataLinkVisualizer lineContactMode "\"rectangular\""
attr enum circular,rectangular
par VideoStreamingShowcase.visualizer.canvasVisualizer.dataLinkVisualizer labelFormat "\"%n\""
par VideoStreamingShowcase.visualizer.canvasVisualizer.dataLinkVisualizer labelFont "\"<default>, 8px\""
par VideoStreamingShowcase.visualizer.canvasVisualizer.dataLinkVisualizer labelColor "\"darkcyan\""
par VideoStreamingShowcase.visualizer.canvasVisualizer.dataLinkVisualizer fadeOutMode "\"realTime\""
attr enum realTime,animationTime,simulationTime
par VideoStreamingShowcase.visualizer.canvasVisualizer.dataLinkVisualizer fadeOutTime 1s
attr unit s
par VideoStreamingShowcase.visualizer.canvasVisualizer.dataLinkVisualizer fadeOutAnimationSpeed 0
par VideoStreamingShowcase.visualizer.canvasVisualizer.dataLinkVisualizer holdAnimationTime 0s
attr unit s
par VideoStreamingShowcase.visualizer.canvasVisualizer.dataLinkVisualizer zIndex 2
par VideoStreamingShowcase.visualizer.canvasVisualizer.linkBreakVisualizer typename "\"inet.visualizer.canvas.linklayer.LinkBreakCanvasVisualizer\""
par VideoStreamingShowcase.visualizer.canvasVisualizer.linkBreakVisualizer visualizationTargetModule "\"^.^.^\""
par VideoStreamingShowcase.visualizer.canvasVisualizer.linkBreakVisualizer visualizationSubjectModule "\"^.^.^\""
par VideoStreamingShowcase.visualizer.canvasVisualizer.linkBreakVisualizer tags "\"\""
par VideoStreamingShowcase.visualizer.canvasVisualizer.linkBreakVisualizer displayLinkBreaks false
par VideoStreamingShowcase.visualizer.canvasVisualizer.linkBreakVisualizer nodeFilter "\"*\""
attr mutable ""
par VideoStreamingShowcase.visualizer.canvasVisualizer.linkBreakVisualizer interfaceFilter "\"*\""
attr mutable ""
par VideoStreamingShowcase.visualizer.canvasVisualizer.linkBreakVisualizer packetFilter "\"*\""
attr mutable ""
par VideoStreamingShowcase.visualizer.canvasVisualizer.linkBreakVisualizer packetDataFilter "\"*\""
par VideoStreamingShowcase.visualizer.canvasVisualizer.linkBreakVisualizer icon "\"status/stop\""
par VideoStreamingShowcase.visualizer.canvasVisualizer.linkBreakVisualizer iconTintAmount 0
par VideoStreamingShowcase.visualizer.canvasVisualizer.linkBreakVisualizer iconTintColor "\"\""
par VideoStreamingShowcase.visualizer.canvasVisualizer.linkBreakVisualizer fadeOutMode "\"realTime\""
attr enum realTime,animationTime,simulationTime
par VideoStreamingShowcase.visualizer.canvasVisualizer.linkBreakVisualizer fadeOutTime 1s
attr unit s
par VideoStreamingShowcase.visualizer.canvasVisualizer.linkBreakVisualizer fadeOutAnimationSpeed 0
par VideoStreamingShowcase.visualizer.canvasVisualizer.linkBreakVisualizer zIndex 2
par VideoStreamingShowcase.visualizer.canvasVisualizer.ieee80211Visualizer typename "\"inet.visualizer.canvas.linklayer.Ieee80211CanvasVisualizer\""
par VideoStreamingShowcase.visualizer.canvasVisualizer.ieee80211Visualizer visualizationTargetModule "\"^.^.^\""
par VideoStreamingShowcase.visualizer.canvasVisualizer.ieee80211Visualizer visualizationSubjectModule "\"^.^.^\""
par VideoStreamingShowcase.visualizer.canvasVisualizer.ieee80211Visualizer tags "\"\""
par VideoStreamingShowcase.visualizer.canvasVisualizer.ieee80211Visualizer networkNodeVisualizerModule "\"^.networkNodeVisualizer\""
par VideoStreamingShowcase.visualizer.canvasVisualizer.ieee80211Visualizer displayAssociations false
par VideoStreamingShowcase.visualizer.canvasVisualizer.ieee80211Visualizer nodeFilter "\"*\""
attr mutable ""
par VideoStreamingShowcase.visualizer.canvasVisualizer.ieee80211Visualizer interfaceFilter "\"*\""
attr mutable ""
par VideoStreamingShowcase.visualizer.canvasVisualizer.ieee80211Visualizer minPower -85dBm
attr unit dBm
par VideoStreamingShowcase.visualizer.canvasVisualizer.ieee80211Visualizer maxPower -50dBm
attr unit dBm
par VideoStreamingShowcase.visualizer.canvasVisualizer.ieee80211Visualizer icons "\"misc/signal_power_0 misc/signal_power_1 misc/signal_power_2 misc/signal_power_3\""
par VideoStreamingShowcase.visualizer.canvasVisualizer.ieee80211Visualizer iconColor "\"dark\""
attr enum light,dark
par VideoStreamingShowcase.visualizer.canvasVisualizer.ieee80211Visualizer labelFont "\"<default>\""
par VideoStreamingShowcase.visualizer.canvasVisualizer.ieee80211Visualizer labelColor "\"black\""
par VideoStreamingShowcase.visualizer.canvasVisualizer.ieee80211Visualizer placementHint "\"top\""
par VideoStreamingShowcase.visualizer.canvasVisualizer.ieee80211Visualizer placementPriority 0
par VideoStreamingShowcase.visualizer.canvasVisualizer.ieee80211Visualizer zIndex 2
par VideoStreamingShowcase.visualizer.canvasVisualizer.networkRouteVisualizer typename "\"inet.visualizer.canvas.networklayer.NetworkRouteCanvasVisualizer\""
par VideoStreamingShowcase.visualizer.canvasVisualizer.networkRouteVisualizer visualizationTargetModule "\"^.^.^\""
par VideoStreamingShowcase.visualizer.canvasVisualizer.networkRouteVisualizer visualizationSubjectModule "\"^.^.^\""
par VideoStreamingShowcase.visualizer.canvasVisualizer.networkRouteVisualizer tags "\"\""
par VideoStreamingShowcase.visualizer.canvasVisualizer.networkRouteVisualizer displayRoutes false
par VideoStreamingShowcase.visualizer.canvasVisualizer.networkRouteVisualizer startPathSignal "\"packetReceivedFromUpper\""
par VideoStreamingShowcase.visualizer.canvasVisualizer.networkRouteVisualizer extendPathSignal "\"packetReceivedFromLower\""
par VideoStreamingShowcase.visualizer.canvasVisualizer.networkRouteVisualizer endPathSignal "\"packetSentToUpper\""
par VideoStreamingShowcase.visualizer.canvasVisualizer.networkRouteVisualizer nodeFilter "\"*\""
attr mutable ""
par VideoStreamingShowcase.visualizer.canvasVisualizer.networkRouteVisualizer packetFilter "\"*\""
attr mutable ""
par VideoStreamingShowcase.visualizer.canvasVisualizer.networkRouteVisualizer packetDataFilter "\"*\""
attr mutable ""
par VideoStreamingShowcase.visualizer.canvasVisualizer.networkRouteVisualizer lineColor "\"dark\""
attr enum light,dark
par VideoStreamingShowcase.visualizer.canvasVisualizer.networkRouteVisualizer lineStyle "\"solid\""
par VideoStreamingShowcase.visualizer.canvasVisualizer.networkRouteVisualizer lineWidth 3
par VideoStreamingShowcase.visualizer.canvasVisualizer.networkRouteVisualizer lineSmooth false
par VideoStreamingShowcase.visualizer.canvasVisualizer.networkRouteVisualizer lineShift 16
par VideoStreamingShowcase.visualizer.canvasVisualizer.networkRouteVisualizer lineShiftMode "\"normal\""
par VideoStreamingShowcase.visualizer.canvasVisualizer.networkRouteVisualizer lineContactSpacing 3
par VideoStreamingShowcase.visualizer.canvasVisualizer.networkRouteVisualizer lineContactMode "\"rectangular\""
attr enum circular,rectangular
par VideoStreamingShowcase.visualizer.canvasVisualizer.networkRouteVisualizer labelFormat "\"%n\""
par VideoStreamingShowcase.visualizer.canvasVisualizer.networkRouteVisualizer labelFont "\"<default>, 8px\""
par VideoStreamingShowcase.visualizer.canvasVisualizer.networkRouteVisualizer labelColor "\"\""
par VideoStreamingShowcase.visualizer.canvasVisualizer.networkRouteVisualizer fadeOutMode "\"realTime\""
attr enum realTime,animationTime,simulationTime
par VideoStreamingShowcase.visualizer.canvasVisualizer.networkRouteVisualizer fadeOutTime 1s
attr unit s
par VideoStreamingShowcase.visualizer.canvasVisualizer.networkRouteVisualizer fadeOutAnimationSpeed 0
par VideoStreamingShowcase.visualizer.canvasVisualizer.networkRouteVisualizer zIndex 3
par VideoStreamingShowcase.visualizer.canvasVisualizer.routingTableVisualizer typename "\"inet.visualizer.canvas.networklayer.RoutingTableCanvasVisualizer\""
par VideoStreamingShowcase.visualizer.canvasVisualizer.routingTableVisualizer visualizationTargetModule "\"^.^.^\""
par VideoStreamingShowcase.visualizer.canvasVisualizer.routingTableVisualizer visualizationSubjectModule "\"^.^.^\""
par VideoStreamingShowcase.visualizer.canvasVisualizer.routingTableVisualizer tags "\"\""
par VideoStreamingShowcase.visualizer.canvasVisualizer.routingTableVisualizer displayRoutingTables false
par VideoStreamingShowcase.visualizer.canvasVisualizer.routingTableVisualizer displayRoutesIndividually true
par VideoStreamingShowcase.visualizer.canvasVisualizer.routingTableVisualizer displayLabels true
par VideoStreamingShowcase.visualizer.canvasVisualizer.routingTableVisualizer destinationFilter "\"*\""
attr mutable ""
par VideoStreamingShowcase.visualizer.canvasVisualizer.routingTableVisualizer nodeFilter "\"*\""
attr mutable ""
par VideoStreamingShowcase.visualizer.canvasVisualizer.routingTableVisualizer lineColor "\"black\""
par VideoStreamingShowcase.visualizer.canvasVisualizer.routingTableVisualizer lineStyle "\"solid\""
par VideoStreamingShowcase.visualizer.canvasVisualizer.routingTableVisualizer lineWidth 2
par VideoStreamingShowcase.visualizer.canvasVisualizer.routingTableVisualizer lineShift 16
par VideoStreamingShowcase.visualizer.canvasVisualizer.routingTableVisualizer lineShiftMode "\"normal\""
par VideoStreamingShowcase.visualizer.canvasVisualizer.routingTableVisualizer lineContactSpacing 3
par VideoStreamingShowcase.visualizer.canvasVisualizer.routingTableVisualizer lineContactMode "\"rectangular\""
attr enum circular,rectangular
par VideoStreamingShowcase.visualizer.canvasVisualizer.routingTableVisualizer labelFormat "\"%d/%m -> %g (%n)\""
attr mutable ""
par VideoStreamingShowcase.visualizer.canvasVisualizer.routingTableVisualizer labelFont "\"<default>, 8px\""
par VideoStreamingShowcase.visualizer.canvasVisualizer.routingTableVisualizer labelColor "\"black\""
par VideoStreamingShowcase.visualizer.canvasVisualizer.routingTableVisualizer zIndex 0
par VideoStreamingShowcase.visualizer.canvasVisualizer.transportRouteVisualizer typename "\"inet.visualizer.canvas.transportlayer.TransportRouteCanvasVisualizer\""
par VideoStreamingShowcase.visualizer.canvasVisualizer.transportRouteVisualizer visualizationTargetModule "\"^.^.^\""
par VideoStreamingShowcase.visualizer.canvasVisualizer.transportRouteVisualizer visualizationSubjectModule "\"^.^.^\""
par VideoStreamingShowcase.visualizer.canvasVisualizer.transportRouteVisualizer tags "\"\""
par VideoStreamingShowcase.visualizer.canvasVisualizer.transportRouteVisualizer displayRoutes false
par VideoStreamingShowcase.visualizer.canvasVisualizer.transportRouteVisualizer startPathSignal "\"packetReceivedFromUpper\""
par VideoStreamingShowcase.visualizer.canvasVisualizer.transportRouteVisualizer extendPathSignal "\"packetReceivedFromLower\""
par VideoStreamingShowcase.visualizer.canvasVisualizer.transportRouteVisualizer endPathSignal "\"packetSentToUpper\""
par VideoStreamingShowcase.visualizer.canvasVisualizer.transportRouteVisualizer nodeFilter "\"*\""
attr mutable ""
par VideoStreamingShowcase.visualizer.canvasVisualizer.transportRouteVisualizer packetFilter "\"*\""
attr mutable ""
par VideoStreamingShowcase.visualizer.canvasVisualizer.transportRouteVisualizer packetDataFilter "\"*\""
attr mutable ""
par VideoStreamingShowcase.visualizer.canvasVisualizer.transportRouteVisualizer lineColor "\"dark\""
attr enum light,dark
par VideoStreamingShowcase.visualizer.canvasVisualizer.transportRouteVisualizer lineStyle "\"solid\""
par VideoStreamingShowcase.visualizer.canvasVisualizer.transportRouteVisualizer lineWidth 3
par VideoStreamingShowcase.visualizer.canvasVisualizer.transportRouteVisualizer lineSmooth false
par VideoStreamingShowcase.visualizer.canvasVisualizer.transportRouteVisualizer lineShift 16
par VideoStreamingShowcase.visualizer.canvasVisualizer.transportRouteVisualizer lineShiftMode "\"normal\""
par VideoStreamingShowcase.visualizer.canvasVisualizer.transportRouteVisualizer lineContactSpacing 3
par VideoStreamingShowcase.visualizer.canvasVisualizer.transportRouteVisualizer lineContactMode "\"rectangular\""
attr enum circular,rectangular
par VideoStreamingShowcase.visualizer.canvasVisualizer.transportRouteVisualizer labelFormat "\"%n\""
par VideoStreamingShowcase.visualizer.canvasVisualizer.transportRouteVisualizer labelFont "\"<default>, 8px\""
par VideoStreamingShowcase.visualizer.canvasVisualizer.transportRouteVisualizer labelColor "\"\""
par VideoStreamingShowcase.visualizer.canvasVisualizer.transportRouteVisualizer fadeOutMode "\"realTime\""
attr enum realTime,animationTime,simulationTime
par VideoStreamingShowcase.visualizer.canvasVisualizer.transportRouteVisualizer fadeOutTime 1s
attr unit s
par VideoStreamingShowcase.visualizer.canvasVisualizer.transportRouteVisualizer fadeOutAnimationSpeed 0
par VideoStreamingShowcase.visualizer.canvasVisualizer.transportRouteVisualizer zIndex 4
par VideoStreamingShowcase.visualizer.canvasVisualizer.transportConnectionVisualizer typename "\"inet.visualizer.canvas.transportlayer.TransportConnectionCanvasVisualizer\""
par VideoStreamingShowcase.visualizer.canvasVisualizer.transportConnectionVisualizer visualizationTargetModule "\"^.^.^\""
par VideoStreamingShowcase.visualizer.canvasVisualizer.transportConnectionVisualizer visualizationSubjectModule "\"^.^.^\""
par VideoStreamingShowcase.visualizer.canvasVisualizer.transportConnectionVisualizer tags "\"\""
par VideoStreamingShowcase.visualizer.canvasVisualizer.transportConnectionVisualizer networkNodeVisualizerModule "\"^.networkNodeVisualizer\""
par VideoStreamingShowcase.visualizer.canvasVisualizer.transportConnectionVisualizer displayTransportConnections false
par VideoStreamingShowcase.visualizer.canvasVisualizer.transportConnectionVisualizer sourceNodeFilter "\"*\""
attr mutable ""
par VideoStreamingShowcase.visualizer.canvasVisualizer.transportConnectionVisualizer sourcePortFilter "\"*\""
attr mutable ""
par VideoStreamingShowcase.visualizer.canvasVisualizer.transportConnectionVisualizer destinationNodeFilter "\"*\""
attr mutable ""
par VideoStreamingShowcase.visualizer.canvasVisualizer.transportConnectionVisualizer destinationPortFilter "\"*\""
attr mutable ""
par VideoStreamingShowcase.visualizer.canvasVisualizer.transportConnectionVisualizer icon "\"misc/marker_s\""
par VideoStreamingShowcase.visualizer.canvasVisualizer.transportConnectionVisualizer iconColor "\"dark\""
attr enum light,dark
par VideoStreamingShowcase.visualizer.canvasVisualizer.transportConnectionVisualizer labelFont "\"<default>\""
par VideoStreamingShowcase.visualizer.canvasVisualizer.transportConnectionVisualizer labelColor "\"black\""
par VideoStreamingShowcase.visualizer.canvasVisualizer.transportConnectionVisualizer placementHint "\"top\""
par VideoStreamingShowcase.visualizer.canvasVisualizer.transportConnectionVisualizer placementPriority 0
par VideoStreamingShowcase.visualizer.canvasVisualizer.transportConnectionVisualizer zIndex 4
par VideoStreamingShowcase.visualizer.canvasVisualizer typename "\"inet.visualizer.canvas.integrated.IntegratedCanvasVisualizer\""
par VideoStreamingShowcase.visualizer.osgVisualizer.sceneVisualizer typename "\"inet.visualizer.osg.scene.SceneOsgVisualizer\""
par VideoStreamingShowcase.visualizer.osgVisualizer.sceneVisualizer visualizationTargetModule "\"^.^.^\""
par VideoStreamingShowcase.visualizer.osgVisualizer.sceneVisualizer visualizationSubjectModule "\"^.^.^\""
par VideoStreamingShowcase.visualizer.osgVisualizer.sceneVisualizer tags "\"\""
par VideoStreamingShowcase.visualizer.osgVisualizer.sceneVisualizer physicalEnvironmentModule "\"physicalEnvironment\""
par VideoStreamingShowcase.visualizer.osgVisualizer.sceneVisualizer networkNodeVisualizerModule "\"^.networkNodeVisualizer\""
par VideoStreamingShowcase.visualizer.osgVisualizer.sceneVisualizer axisLength "nan m"
attr mutable ""
attr unit m
par VideoStreamingShowcase.visualizer.osgVisualizer.sceneVisualizer animationSpeed 0
par VideoStreamingShowcase.visualizer.osgVisualizer.sceneVisualizer sceneMinX "nan m"
attr unit m
par VideoStreamingShowcase.visualizer.osgVisualizer.sceneVisualizer sceneMinY "nan m"
attr unit m
par VideoStreamingShowcase.visualizer.osgVisualizer.sceneVisualizer sceneMinZ "nan m"
attr unit m
par VideoStreamingShowcase.visualizer.osgVisualizer.sceneVisualizer sceneMaxX "nan m"
attr unit m
par VideoStreamingShowcase.visualizer.osgVisualizer.sceneVisualizer sceneMaxY "nan m"
attr unit m
par VideoStreamingShowcase.visualizer.osgVisualizer.sceneVisualizer sceneMaxZ "nan m"
attr unit m
par VideoStreamingShowcase.visualizer.osgVisualizer.sceneVisualizer cameraManipulator "\"auto\""
attr enum auto,trackball,overview,terrain,earth
par VideoStreamingShowcase.visualizer.osgVisualizer.sceneVisualizer cameraDistanceFactor 5
par VideoStreamingShowcase.visualizer.osgVisualizer.sceneVisualizer zNear 1m
attr unit m
par VideoStreamingShowcase.visualizer.osgVisualizer.sceneVisualizer zFar 100000m
attr unit m
par VideoStreamingShowcase.visualizer.osgVisualizer.sceneVisualizer fieldOfView 30deg
attr unit deg
par VideoStreamingShowcase.visualizer.osgVisualizer.sceneVisualizer clearColor "\"#FFFFFF\""
par VideoStreamingShowcase.visualizer.osgVisualizer.sceneVisualizer displayScene true
par VideoStreamingShowcase.visualizer.osgVisualizer.sceneVisualizer sceneColor "\"#A0E0A0\""
par VideoStreamingShowcase.visualizer.osgVisualizer.sceneVisualizer sceneOpacity 1
par VideoStreamingShowcase.visualizer.osgVisualizer.sceneVisualizer sceneImage "\"\""
par VideoStreamingShowcase.visualizer.osgVisualizer.sceneVisualizer sceneImageSize 1m
attr unit m
par VideoStreamingShowcase.visualizer.osgVisualizer.sceneVisualizer sceneShading true
par VideoStreamingShowcase.visualizer.osgVisualizer.physicalEnvironmentVisualizer typename "\"inet.visualizer.osg.environment.PhysicalEnvironmentOsgVisualizer\""
par VideoStreamingShowcase.visualizer.osgVisualizer.physicalEnvironmentVisualizer visualizationTargetModule "\"^.^.^\""
par VideoStreamingShowcase.visualizer.osgVisualizer.physicalEnvironmentVisualizer visualizationSubjectModule "\"^.^.^\""
par VideoStreamingShowcase.visualizer.osgVisualizer.physicalEnvironmentVisualizer tags "\"\""
par VideoStreamingShowcase.visualizer.osgVisualizer.physicalEnvironmentVisualizer physicalEnvironmentModule "\"physicalEnvironment\""
par VideoStreamingShowcase.visualizer.osgVisualizer.physicalEnvironmentVisualizer displayObjects true
par VideoStreamingShowcase.visualizer.osgVisualizer.physicalEnvironmentVisualizer enableObjectOpacity true
par VideoStreamingShowcase.visualizer.osgVisualizer.networkNodeVisualizer typename "\"inet.visualizer.osg.scene.NetworkNodeOsgVisualizer\""
par VideoStreamingShowcase.visualizer.osgVisualizer.networkNodeVisualizer visualizationTargetModule "\"^.^.^\""
par VideoStreamingShowcase.visualizer.osgVisualizer.networkNodeVisualizer visualizationSubjectModule "\"^.^.^\""
par VideoStreamingShowcase.visualizer.osgVisualizer.networkNodeVisualizer tags "\"\""
par VideoStreamingShowcase.visualizer.osgVisualizer.networkNodeVisualizer nodeFilter "\"*\""
attr mutable ""
par VideoStreamingShowcase.visualizer.osgVisualizer.networkNodeVisualizer annotationSpacing 4
par VideoStreamingShowcase.visualizer.osgVisualizer.networkNodeVisualizer placementPenalty 10
par VideoStreamingShowcase.visualizer.osgVisualizer.networkNodeVisualizer displayModuleName true
par VideoStreamingShowcase.visualizer.osgVisualizer.networkConnectionVisualizer typename "\"inet.visualizer.osg.scene.NetworkConnectionOsgVisualizer\""
par VideoStreamingShowcase.visualizer.osgVisualizer.networkConnectionVisualizer visualizationTargetModule "\"^.^.^\""
par VideoStreamingShowcase.visualizer.osgVisualizer.networkConnectionVisualizer visualizationSubjectModule "\"^.^.^\""
par VideoStreamingShowcase.visualizer.osgVisualizer.networkConnectionVisualizer tags "\"\""
par VideoStreamingShowcase.visualizer.osgVisualizer.networkConnectionVisualizer displayNetworkConnections true
par VideoStreamingShowcase.visualizer.osgVisualizer.networkConnectionVisualizer nodeFilter "\"*\""
attr mutable ""
par VideoStreamingShowcase.visualizer.osgVisualizer.networkConnectionVisualizer lineColor "\"black\""
par VideoStreamingShowcase.visualizer.osgVisualizer.networkConnectionVisualizer lineStyle "\"solid\""
par VideoStreamingShowcase.visualizer.osgVisualizer.networkConnectionVisualizer lineWidth 1
par VideoStreamingShowcase.visualizer.osgVisualizer.mobilityVisualizer typename "\"inet.visualizer.osg.mobility.MobilityOsgVisualizer\""
par VideoStreamingShowcase.visualizer.osgVisualizer.mobilityVisualizer visualizationTargetModule "\"^.^.^\""
par VideoStreamingShowcase.visualizer.osgVisualizer.mobilityVisualizer visualizationSubjectModule "\"^.^.^\""
par VideoStreamingShowcase.visualizer.osgVisualizer.mobilityVisualizer tags "\"\""
par VideoStreamingShowcase.visualizer.osgVisualizer.mobilityVisualizer networkNodeVisualizerModule "\"^.networkNodeVisualizer\""
par VideoStreamingShowcase.visualizer.osgVisualizer.mobilityVisualizer displayMobility true
par VideoStreamingShowcase.visualizer.osgVisualizer.mobilityVisualizer animationSpeed 0
par VideoStreamingShowcase.visualizer.osgVisualizer.mobilityVisualizer moduleFilter "\"**.mobility\""
attr mutable ""
par VideoStreamingShowcase.visualizer.osgVisualizer.mobilityVisualizer displayPositions false
par VideoStreamingShowcase.visualizer.osgVisualizer.mobilityVisualizer positionCircleRadius 4
par VideoStreamingShowcase.visualizer.osgVisualizer.mobilityVisualizer positionCircleLineWidth 1
par VideoStreamingShowcase.visualizer.osgVisualizer.mobilityVisualizer positionCircleLineColor "\"dark\""
attr enum light,dark
par VideoStreamingShowcase.visualizer.osgVisualizer.mobilityVisualizer positionCircleFillColor "\"dark\""
attr enum light,dark
par VideoStreamingShowcase.visualizer.osgVisualizer.mobilityVisualizer displayOrientations false
par VideoStreamingShowcase.visualizer.osgVisualizer.mobilityVisualizer orientationPieRadius 32
par VideoStreamingShowcase.visualizer.osgVisualizer.mobilityVisualizer orientationPieSize 0.2
par VideoStreamingShowcase.visualizer.osgVisualizer.mobilityVisualizer orientationPieOpacity 0.25
par VideoStreamingShowcase.visualizer.osgVisualizer.mobilityVisualizer orientationLineColor "\"black\""
par VideoStreamingShowcase.visualizer.osgVisualizer.mobilityVisualizer orientationLineStyle "\"solid\""
par VideoStreamingShowcase.visualizer.osgVisualizer.mobilityVisualizer orientationLineWidth 1
par VideoStreamingShowcase.visualizer.osgVisualizer.mobilityVisualizer orientationFillColor "\"blue\""
par VideoStreamingShowcase.visualizer.osgVisualizer.mobilityVisualizer displayVelocities false
par VideoStreamingShowcase.visualizer.osgVisualizer.mobilityVisualizer velocityArrowScale 1
par VideoStreamingShowcase.visualizer.osgVisualizer.mobilityVisualizer velocityLineColor "\"black\""
par VideoStreamingShowcase.visualizer.osgVisualizer.mobilityVisualizer velocityLineStyle "\"solid\""
par VideoStreamingShowcase.visualizer.osgVisualizer.mobilityVisualizer velocityLineWidth 1
par VideoStreamingShowcase.visualizer.osgVisualizer.mobilityVisualizer displayMovementTrails false
par VideoStreamingShowcase.visualizer.osgVisualizer.mobilityVisualizer movementTrailLineColor "\"dark\""
attr enum light,dark
par VideoStreamingShowcase.visualizer.osgVisualizer.mobilityVisualizer movementTrailLineStyle "\"solid\""
par VideoStreamingShowcase.visualizer.osgVisualizer.mobilityVisualizer movementTrailLineWidth 1
par VideoStreamingShowcase.visualizer.osgVisualizer.mobilityVisualizer trailLength 100
par VideoStreamingShowcase.visualizer.osgVisualizer.statisticVisualizer typename "\"inet.visualizer.osg.common.StatisticOsgVisualizer\""
par VideoStreamingShowcase.visualizer.osgVisualizer.statisticVisualizer visualizationTargetModule "\"^.^.^\""
par VideoStreamingShowcase.visualizer.osgVisualizer.statisticVisualizer visualizationSubjectModule "\"^.^.^\""
par VideoStreamingShowcase.visualizer.osgVisualizer.statisticVisualizer tags "\"\""
par VideoStreamingShowcase.visualizer.osgVisualizer.statisticVisualizer networkNodeVisualizerModule "\"^.networkNodeVisualizer\""
par VideoStreamingShowcase.visualizer.osgVisualizer.statisticVisualizer displayStatistics true
par VideoStreamingShowcase.visualizer.osgVisualizer.statisticVisualizer signalName "\"\""
par VideoStreamingShowcase.visualizer.osgVisualizer.statisticVisualizer statisticName "\"\""
par VideoStreamingShowcase.visualizer.osgVisualizer.statisticVisualizer statisticUnit "\"\""
par VideoStreamingShowcase.visualizer.osgVisualizer.statisticVisualizer statisticExpression "\"\""
par VideoStreamingShowcase.visualizer.osgVisualizer.statisticVisualizer sourceFilter "\"**\""
attr mutable ""
par VideoStreamingShowcase.visualizer.osgVisualizer.statisticVisualizer format "\"%n: %v %u\""
attr mutable ""
par VideoStreamingShowcase.visualizer.osgVisualizer.statisticVisualizer unit "\"\""
par VideoStreamingShowcase.visualizer.osgVisualizer.statisticVisualizer font "\"<default>\""
par VideoStreamingShowcase.visualizer.osgVisualizer.statisticVisualizer textColor "\"black\""
par VideoStreamingShowcase.visualizer.osgVisualizer.statisticVisualizer backgroundColor "\"white\""
par VideoStreamingShowcase.visualizer.osgVisualizer.statisticVisualizer opacity 1
par VideoStreamingShowcase.visualizer.osgVisualizer.statisticVisualizer placementHint "\"top\""
par VideoStreamingShowcase.visualizer.osgVisualizer.statisticVisualizer placementPriority 0
par VideoStreamingShowcase.visualizer.osgVisualizer.infoVisualizer typename "\"inet.visualizer.osg.common.InfoOsgVisualizer\""
par VideoStreamingShowcase.visualizer.osgVisualizer.infoVisualizer visualizationTargetModule "\"^.^.^\""
par VideoStreamingShowcase.visualizer.osgVisualizer.infoVisualizer visualizationSubjectModule "\"^.^.^\""
par VideoStreamingShowcase.visualizer.osgVisualizer.infoVisualizer tags "\"\""
par VideoStreamingShowcase.visualizer.osgVisualizer.infoVisualizer networkNodeVisualizerModule "\"^.networkNodeVisualizer\""
par VideoStreamingShowcase.visualizer.osgVisualizer.infoVisualizer displayInfos true
par VideoStreamingShowcase.visualizer.osgVisualizer.infoVisualizer modules "\"\""
attr mutable ""
par VideoStreamingShowcase.visualizer.osgVisualizer.infoVisualizer format "\"%t\""
attr mutable ""
par VideoStreamingShowcase.visualizer.osgVisualizer.infoVisualizer font "\"<default>\""
par VideoStreamingShowcase.visualizer.osgVisualizer.infoVisualizer textColor "\"black\""
par VideoStreamingShowcase.visualizer.osgVisualizer.infoVisualizer backgroundColor "\"white\""
par VideoStreamingShowcase.visualizer.osgVisualizer.infoVisualizer opacity 1
par VideoStreamingShowcase.visualizer.osgVisualizer.infoVisualizer placementHint "\"top\""
par VideoStreamingShowcase.visualizer.osgVisualizer.infoVisualizer placementPriority 0
par VideoStreamingShowcase.visualizer.osgVisualizer.energyStorageVisualizer typename "\"inet.visualizer.osg.power.EnergyStorageOsgVisualizer\""
par VideoStreamingShowcase.visualizer.osgVisualizer.energyStorageVisualizer visualizationTargetModule "\"^.^.^\""
par VideoStreamingShowcase.visualizer.osgVisualizer.energyStorageVisualizer visualizationSubjectModule "\"^.^.^\""
par VideoStreamingShowcase.visualizer.osgVisualizer.energyStorageVisualizer tags "\"\""
par VideoStreamingShowcase.visualizer.osgVisualizer.energyStorageVisualizer networkNodeVisualizerModule "\"^.networkNodeVisualizer\""
par VideoStreamingShowcase.visualizer.osgVisualizer.energyStorageVisualizer displayEnergyStorages false
par VideoStreamingShowcase.visualizer.osgVisualizer.energyStorageVisualizer energyStorageFilter "\"**\""
par VideoStreamingShowcase.visualizer.osgVisualizer.energyStorageVisualizer color "\"green\""
par VideoStreamingShowcase.visualizer.osgVisualizer.energyStorageVisualizer width 8
par VideoStreamingShowcase.visualizer.osgVisualizer.energyStorageVisualizer height 24
par VideoStreamingShowcase.visualizer.osgVisualizer.energyStorageVisualizer spacing 2
par VideoStreamingShowcase.visualizer.osgVisualizer.energyStorageVisualizer placementHint "\"right\""
par VideoStreamingShowcase.visualizer.osgVisualizer.energyStorageVisualizer placementPriority 0
par VideoStreamingShowcase.visualizer.osgVisualizer.mediumVisualizer typename "\"inet.visualizer.osg.physicallayer.MediumOsgVisualizer\""
par VideoStreamingShowcase.visualizer.osgVisualizer.mediumVisualizer visualizationTargetModule "\"^.^.^\""
par VideoStreamingShowcase.visualizer.osgVisualizer.mediumVisualizer visualizationSubjectModule "\"^.^.^\""
par VideoStreamingShowcase.visualizer.osgVisualizer.mediumVisualizer tags "\"\""
par VideoStreamingShowcase.visualizer.osgVisualizer.mediumVisualizer mediumModule "\"radioMedium\""
par VideoStreamingShowcase.visualizer.osgVisualizer.mediumVisualizer networkNodeVisualizerModule "\"^.networkNodeVisualizer\""
par VideoStreamingShowcase.visualizer.osgVisualizer.mediumVisualizer nodeFilter "\"*\""
attr mutable ""
par VideoStreamingShowcase.visualizer.osgVisualizer.mediumVisualizer interfaceFilter "\"*\""
attr mutable ""
par VideoStreamingShowcase.visualizer.osgVisualizer.mediumVisualizer packetFilter "\"*\""
attr mutable ""
par VideoStreamingShowcase.visualizer.osgVisualizer.mediumVisualizer packetDataFilter "\"*\""
attr mutable ""
par VideoStreamingShowcase.visualizer.osgVisualizer.mediumVisualizer displaySignals false
par VideoStreamingShowcase.visualizer.osgVisualizer.mediumVisualizer signalColor "\"dark\""
attr enum light,dark
par VideoStreamingShowcase.visualizer.osgVisualizer.mediumVisualizer signalPropagationAnimationSpeed "nan "
attr mutable ""
par VideoStreamingShowcase.visualizer.osgVisualizer.mediumVisualizer signalPropagationAnimationTime 1s
attr unit s
[...]
field count 0
field mean -nan
field stddev nan
field min nan
field max nan
field sum 0
field sqrsum 0
attr recordingmode histogram
attr source bitErrorRate(packetSentToUpper)
attr title "Bit error rate"
bin	-inf	0
bin	0	0
bin	1	0
statistic VideoStreamingShowcase.host2.wlan[0].radio symbolErrorRate:histogram
field count 0
field mean -nan
field stddev nan
field min nan
field max nan
field sum 0
field sqrsum 0
attr recordingmode histogram
attr source symbolErrorRate(packetSentToUpper)
attr title "Symbol error rate"
bin	-inf	0
bin	0	0
bin	1	0
par VideoStreamingShowcase.host2.wlan[0] typename "\"inet.emulation.linklayer.ieee80211.ExtUpperIeee80211Interface\""
par VideoStreamingShowcase.host2.wlan[0] displayStringTextFormat "\"%a (%i)\\n%m\""
par VideoStreamingShowcase.host2.wlan[0] recordPcap false
par VideoStreamingShowcase.host2.wlan[0] numPcapRecorders 0
par VideoStreamingShowcase.host2.wlan[0] interfaceTableModule "\"VideoStreamingShowcase.host2.interfaceTable\""
par VideoStreamingShowcase.host2.wlan[0] device "\"tapb\""
par VideoStreamingShowcase.host2.wlan[0] namespace "\"\""
par VideoStreamingShowcase.host2.wlan[0] copyConfiguration "\"\""
attr enum ,copyToExt,copyFromExt
par VideoStreamingShowcase.host2.wlan[0] address "\"0A-AA-00-00-00-09\""
attr mutable ""
par VideoStreamingShowcase.host2.wlan[0] broadcast true
par VideoStreamingShowcase.host2.wlan[0] multicast true
par VideoStreamingShowcase.host2.wlan[0] pointToPoint false
par VideoStreamingShowcase.host2.wlan[0] mtu 4470B
attr unit B
par VideoStreamingShowcase.host2.wlan[0] energySourceModule "\"\""
par VideoStreamingShowcase.host2.wlan[0] opMode "\"g(mixed)\""
attr enum a,b,g(erp),g(mixed),n(mixed-2.4Ghz),p,ac
par VideoStreamingShowcase.host2.wlan[0] bitrate 5.4e+07bps
attr unit bps
par VideoStreamingShowcase.host2.ipv4.transportIn.channel typename "\"ned.IdealChannel\""
par VideoStreamingShowcase.host2.ipv4.up.out[0].channel typename "\"ned.IdealChannel\""
par VideoStreamingShowcase.host2.ipv4.lp.out[2].channel typename "\"ned.IdealChannel\""
par VideoStreamingShowcase.host2.ipv4.ifIn.channel typename "\"ned.IdealChannel\""
par VideoStreamingShowcase.host2.ipv4.configurator typename "\"inet.networklayer.configurator.ipv4.Ipv4NodeConfigurator\""
par VideoStreamingShowcase.host2.ipv4.configurator interfaceTableModule "\"VideoStreamingShowcase.host2.interfaceTable\""
par VideoStreamingShowcase.host2.ipv4.configurator routingTableModule "\"VideoStreamingShowcase.host2.ipv4.routingTable\""
par VideoStreamingShowcase.host2.ipv4.configurator networkConfiguratorModule "\"configurator\""
par VideoStreamingShowcase.host2.ipv4.configurator configureRoutingTable true
par VideoStreamingShowcase.host2.ipv4.routingTable typename "\"inet.networklayer.ipv4.Ipv4RoutingTable\""
par VideoStreamingShowcase.host2.ipv4.routingTable interfaceTableModule "\"VideoStreamingShowcase.host2.interfaceTable\""
par VideoStreamingShowcase.host2.ipv4.routingTable routerId "\"auto\""
par VideoStreamingShowcase.host2.ipv4.routingTable netmaskRoutes "\"\""
par VideoStreamingShowcase.host2.ipv4.routingTable forwarding false
par VideoStreamingShowcase.host2.ipv4.routingTable multicastForwarding false
par VideoStreamingShowcase.host2.ipv4.routingTable useAdminDist false
par VideoStreamingShowcase.host2.ipv4.routingTable routingFile "\"\""
par VideoStreamingShowcase.host2.ipv4.natTable typename "\"inet.networklayer.ipv4.Ipv4NatTable\""
par VideoStreamingShowcase.host2.ipv4.natTable networkProtocolModule "\"^.ip\""
par VideoStreamingShowcase.host2.ipv4.natTable config "<config/> at content:1"
par VideoStreamingShowcase.host2.ipv4.up typename "\"inet.common.MessageDispatcher\""
par VideoStreamingShowcase.host2.ipv4.up displayStringTextFormat "\"processed %p pk (%l)\""
par VideoStreamingShowcase.host2.ipv4.igmp typename "\"inet.networklayer.ipv4.Igmpv2\""
par VideoStreamingShowcase.host2.ipv4.igmp interfaceTableModule "\"VideoStreamingShowcase.host2.interfaceTable\""
par VideoStreamingShowcase.host2.ipv4.igmp routingTableModule "\"VideoStreamingShowcase.host2.ipv4.routingTable\""
par VideoStreamingShowcase.host2.ipv4.igmp crcMode "\"computed\""
attr enum declared,computed
par VideoStreamingShowcase.host2.ipv4.igmp enabled true
par VideoStreamingShowcase.host2.ipv4.igmp robustnessVariable 2
par VideoStreamingShowcase.host2.ipv4.igmp queryInterval 125s
attr unit s
par VideoStreamingShowcase.host2.ipv4.igmp queryResponseInterval 10s
attr unit s
par VideoStreamingShowcase.host2.ipv4.igmp groupMembershipInterval 260s
attr unit s
par VideoStreamingShowcase.host2.ipv4.igmp otherQuerierPresentInterval 255s
attr unit s
par VideoStreamingShowcase.host2.ipv4.igmp startupQueryInterval 31.25s
attr unit s
par VideoStreamingShowcase.host2.ipv4.igmp startupQueryCount 2
par VideoStreamingShowcase.host2.ipv4.igmp lastMemberQueryInterval 1s
attr unit s
par VideoStreamingShowcase.host2.ipv4.igmp lastMemberQueryCount 2
par VideoStreamingShowcase.host2.ipv4.igmp unsolicitedReportInterval 10s
attr unit s
par VideoStreamingShowcase.host2.ipv4.icmp typename "\"inet.networklayer.ipv4.Icmp\""
par VideoStreamingShowcase.host2.ipv4.icmp interfaceTableModule "\"VideoStreamingShowcase.host2.interfaceTable\""
par VideoStreamingShowcase.host2.ipv4.icmp routingTableModule "\"VideoStreamingShowcase.host2.ipv4.routingTable\""
par VideoStreamingShowcase.host2.ipv4.icmp crcMode "\"computed\""
attr enum declared,computed
attr mutable ""
par VideoStreamingShowcase.host2.ipv4.icmp quoteLength 8B
attr mutable ""
attr unit B
par VideoStreamingShowcase.host2.ipv4.mp typename "\"inet.common.MessageDispatcher\""
par VideoStreamingShowcase.host2.ipv4.mp displayStringTextFormat "\"processed %p pk (%l)\""
par VideoStreamingShowcase.host2.ipv4.ip typename "\"inet.networklayer.ipv4.Ipv4\""
par VideoStreamingShowcase.host2.ipv4.ip interfaceTableModule "\"VideoStreamingShowcase.host2.interfaceTable\""
par VideoStreamingShowcase.host2.ipv4.ip routingTableModule "\"VideoStreamingShowcase.host2.ipv4.routingTable\""
par VideoStreamingShowcase.host2.ipv4.ip arpModule "\"VideoStreamingShowcase.host2.ipv4.arp\""
par VideoStreamingShowcase.host2.ipv4.ip icmpModule "\"VideoStreamingShowcase.host2.ipv4.icmp\""
par VideoStreamingShowcase.host2.ipv4.ip crcMode "\"computed\""
attr enum declared,computed
par VideoStreamingShowcase.host2.ipv4.ip timeToLive 32
par VideoStreamingShowcase.host2.ipv4.ip multicastTimeToLive 32
par VideoStreamingShowcase.host2.ipv4.ip fragmentTimeout 60s
attr unit s
par VideoStreamingShowcase.host2.ipv4.ip limitedBroadcast false
par VideoStreamingShowcase.host2.ipv4.ip directBroadcastInterfaces "\"\""
scalar VideoStreamingShowcase.host2.ipv4.ip packetDropAddressResolutionFailed:count 0
attr interpolationmode none
attr recordingmode count
attr source packetDropReasonIsAddressResolutionFailed(packetDropped)
attr title "packet drop: address resolution failed, count"
scalar VideoStreamingShowcase.host2.ipv4.ip packetDropAddressResolutionFailed:sum(packetBytes) 0
attr interpolationmode none
attr recordingmode sum(packetBytes)
attr source packetDropReasonIsAddressResolutionFailed(packetDropped)
attr title "packet drop: address resolution failed, sum(packetBytes)"
scalar VideoStreamingShowcase.host2.ipv4.ip packetDropHopLimitReached:count 0
attr interpolationmode none
attr recordingmode count
attr source packetDropReasonIsHopLimitReached(packetDropped)
attr title "packet drop: hop limit reached, count"
scalar VideoStreamingShowcase.host2.ipv4.ip packetDropHopLimitReached:sum(packetBytes) 0
attr interpolationmode none
attr recordingmode sum(packetBytes)
attr source packetDropReasonIsHopLimitReached(packetDropped)
attr title "packet drop: hop limit reached, sum(packetBytes)"
scalar VideoStreamingShowcase.host2.ipv4.ip packetDropForwardingDisabled:count 0
attr interpolationmode none
attr recordingmode count
attr source packetDropReasonIsForwardingDisabled(packetDropped)
attr title "packet drop: forwarding disabled, count"
scalar VideoStreamingShowcase.host2.ipv4.ip packetDropForwardingDisabled:sum(packetBytes) 0
attr interpolationmode none
attr recordingmode sum(packetBytes)
attr source packetDropReasonIsForwardingDisabled(packetDropped)
attr title "packet drop: forwarding disabled, sum(packetBytes)"
scalar VideoStreamingShowcase.host2.ipv4.ip packetDropNoInterfaceFound:count 0
attr interpolationmode none
attr recordingmode count
attr source packetDropReasonIsNoInterfaceFound(packetDropped)
attr title "packet drop: no interface found, count"
scalar VideoStreamingShowcase.host2.ipv4.ip packetDropNoInterfaceFound:sum(packetBytes) 0
attr interpolationmode none
attr recordingmode sum(packetBytes)
attr source packetDropReasonIsNoInterfaceFound(packetDropped)
attr title "packet drop: no interface found, sum(packetBytes)"
scalar VideoStreamingShowcase.host2.ipv4.ip packetDropNoRouteFound:count 0
attr interpolationmode none
attr recordingmode count
attr source packetDropReasonIsNoRouteFound(packetDropped)
attr title "packet drop: no route found, count"
scalar VideoStreamingShowcase.host2.ipv4.ip packetDropNoRouteFound:sum(packetBytes) 0
attr interpolationmode none
attr recordingmode sum(packetBytes)
attr source packetDropReasonIsNoRouteFound(packetDropped)
attr title "packet drop: no route found, sum(packetBytes)"
scalar VideoStreamingShowcase.host2.ipv4.ip packetDropUndefined:count 0
attr interpolationmode none
attr recordingmode count
attr source packetDropReasonIsUndefined(packetDropped)
attr title "packet drop: undefined, count"
scalar VideoStreamingShowcase.host2.ipv4.ip packetDropUndefined:sum(packetBytes) 0
attr interpolationmode none
attr recordingmode sum(packetBytes)
attr source packetDropReasonIsUndefined(packetDropped)
attr title "packet drop: undefined, sum(packetBytes)"
par VideoStreamingShowcase.host2.ipv4.arp typename "\"inet.networklayer.arp.ipv4.GlobalArp\""
par VideoStreamingShowcase.host2.ipv4.arp interfaceTableModule "\"VideoStreamingShowcase.host2.interfaceTable\""
par VideoStreamingShowcase.host2.ipv4.arp addressType "\"ipv4\""
attr enum ipv4,ipv6,mac,moduleid,modulepath
par VideoStreamingShowcase.host2.ipv4.lp typename "\"inet.common.MessageDispatcher\""
par VideoStreamingShowcase.host2.ipv4.lp displayStringTextFormat "\"processed %p pk (%l)\""
par VideoStreamingShowcase.host2.ipv4 typename "\"inet.networklayer.ipv4.Ipv4NetworkLayer\""
par VideoStreamingShowcase.host2.ipv4 forwarding false
par VideoStreamingShowcase.host2.ipv4 multicastForwarding false
par VideoStreamingShowcase.host2.ipv4 interfaceTableModule "\"VideoStreamingShowcase.host2.interfaceTable\""
par VideoStreamingShowcase.host2.ipv4 displayStringTextFormat "\"%i\""
par VideoStreamingShowcase.host2.nl typename "\"inet.common.MessageDispatcher\""
par VideoStreamingShowcase.host2.nl displayStringTextFormat "\"processed %p pk (%l)\""
par VideoStreamingShowcase.host2.udp typename "\"inet.transportlayer.udp.Udp\""
par VideoStreamingShowcase.host2.udp interfaceTableModule "\"VideoStreamingShowcase.host2.interfaceTable\""
par VideoStreamingShowcase.host2.udp icmpModule "\"^.ipv4.icmp\""
par VideoStreamingShowcase.host2.udp icmpv6Module "\"^.ipv6.icmpv6\""
par VideoStreamingShowcase.host2.udp crcMode "\"computed\""
attr enum disabled,declared,computed
scalar VideoStreamingShowcase.host2.udp packetReceived:count 0
attr interpolationmode none
attr recordingmode count
attr source packetReceived
attr title "packets received, count"
scalar VideoStreamingShowcase.host2.udp packetReceived:sum(packetBytes) 0
attr interpolationmode none
attr recordingmode sum(packetBytes)
attr source packetReceived
attr title "packets received, sum(packetBytes)"
scalar VideoStreamingShowcase.host2.udp packetSent:count 0
attr interpolationmode none
attr recordingmode count
attr source packetSent
attr title "packets sent, count"
scalar VideoStreamingShowcase.host2.udp packetSent:sum(packetBytes) 0
attr interpolationmode none
attr recordingmode sum(packetBytes)
attr source packetSent
attr title "packets sent, sum(packetBytes)"
scalar VideoStreamingShowcase.host2.udp passedUpPk:count 0
attr interpolationmode none
attr recordingmode count
attr source packetSentToUpper
attr title "packets passed up, count"
scalar VideoStreamingShowcase.host2.udp droppedPkWrongPort:count 0
attr interpolationmode none
attr recordingmode count
attr source packetDropReasonIsNoPortFound(packetDropped)
attr title "packets dropped (wrong port), count"
scalar VideoStreamingShowcase.host2.udp droppedPkBadChecksum:count 0
attr interpolationmode none
attr recordingmode count
attr source packetDropReasonIsIncorrectlyReceived(packetDropped)
attr title "packets dropped (checksum error), count"
par VideoStreamingShowcase.host2.tcp typename "\"inet.transportlayer.tcp.Tcp\""
par VideoStreamingShowcase.host2.tcp crcMode "\"computed\""
attr enum declared,computed
par VideoStreamingShowcase.host2.tcp advertisedWindow 7504
par VideoStreamingShowcase.host2.tcp delayedAcksEnabled false
par VideoStreamingShowcase.host2.tcp nagleEnabled true
par VideoStreamingShowcase.host2.tcp limitedTransmitEnabled false
par VideoStreamingShowcase.host2.tcp increasedIWEnabled false
par VideoStreamingShowcase.host2.tcp sackSupport false
par VideoStreamingShowcase.host2.tcp windowScalingSupport false
par VideoStreamingShowcase.host2.tcp windowScalingFactor -1
par VideoStreamingShowcase.host2.tcp timestampSupport false
par VideoStreamingShowcase.host2.tcp mss 536
par VideoStreamingShowcase.host2.tcp msl 120s
attr unit s
par VideoStreamingShowcase.host2.tcp tcpAlgorithmClass "\"TcpReno\""
attr enum TcpVegas,TcpWestwood,TcpNewReno,TcpReno,TcpTahoe,TcpNoCongestionControl
par VideoStreamingShowcase.host2.tcp useDataNotification false
par VideoStreamingShowcase.host2.tcp dupthresh 3
par VideoStreamingShowcase.host2.tcp initialSsthresh 4294967295
par VideoStreamingShowcase.host2.tcp stopOperationExtraTime 0s
attr unit s
par VideoStreamingShowcase.host2.tcp stopOperationTimeout 2s
attr unit s
par VideoStreamingShowcase.host2.tcp ecnWillingness false
par VideoStreamingShowcase.host2.tcp dctcpGamma 0.0625
par VideoStreamingShowcase.host2.tn typename "\"inet.common.MessageDispatcher\""
par VideoStreamingShowcase.host2.tn displayStringTextFormat "\"processed %p pk (%l)\""
par VideoStreamingShowcase.host2.at typename "\"inet.common.MessageDispatcher\""
par VideoStreamingShowcase.host2.at displayStringTextFormat "\"processed %p pk (%l)\""
par VideoStreamingShowcase.host2 typename "\"inet.node.inet.WirelessHost\""
par VideoStreamingShowcase.host2 hasStatus false
par VideoStreamingShowcase.host2 osgModel "\"\""
par VideoStreamingShowcase.host2 osgModelColor "\"\""
par VideoStreamingShowcase.host2 canvasImage "\"\""
par VideoStreamingShowcase.host2 canvasImageColor "\"\""
par VideoStreamingShowcase.host2 recordPcap false
par VideoStreamingShowcase.host2 numPcapRecorders 1
par VideoStreamingShowcase.host2 numLoInterfaces 1
par VideoStreamingShowcase.host2 numWlanInterfaces 1
par VideoStreamingShowcase.host2 numEthInterfaces 0
par VideoStreamingShowcase.host2 numPppInterfaces 0
par VideoStreamingShowcase.host2 numTunInterfaces 0
par VideoStreamingShowcase.host2 numVirtInterfaces 0
par VideoStreamingShowcase.host2 hasIpv4 true
par VideoStreamingShowcase.host2 hasIpv6 false
par VideoStreamingShowcase.host2 hasGn false
par VideoStreamingShowcase.host2 forwarding false
par VideoStreamingShowcase.host2 multicastForwarding false
par VideoStreamingShowcase.host2 hasUdp true
par VideoStreamingShowcase.host2 hasTcp true
par VideoStreamingShowcase.host2 hasSctp false
par VideoStreamingShowcase.host2 numApps 0
par VideoStreamingShowcase.radioMedium.propagation typename "\"inet.physicallayer.wireless.common.propagation.ConstantSpeedPropagation\""
par VideoStreamingShowcase.radioMedium.propagation propagationSpeed 2.99792e+08mps
attr unit mps
par VideoStreamingShowcase.radioMedium.propagation ignoreMovementDuringTransmission true
par VideoStreamingShowcase.radioMedium.propagation ignoreMovementDuringPropagation true
par VideoStreamingShowcase.radioMedium.propagation ignoreMovementDuringReception true
scalar VideoStreamingShowcase.radioMedium.propagation "Arrival computation count" 14
par VideoStreamingShowcase.radioMedium.analogModel typename "\"inet.physicallayer.wireless.common.analogmodel.packetlevel.ScalarAnalogModel\""
par VideoStreamingShowcase.radioMedium.analogModel ignorePartialInterference false
par VideoStreamingShowcase.radioMedium.backgroundNoise typename "\"inet.physicallayer.wireless.common.backgroundnoise.IsotropicScalarBackgroundNoise\""
par VideoStreamingShowcase.radioMedium.backgroundNoise power -110dBm
attr unit dBm
par VideoStreamingShowcase.radioMedium.backgroundNoise bandwidth "nan Hz"
attr unit Hz
par VideoStreamingShowcase.radioMedium.pathLoss typename "\"inet.physicallayer.wireless.common.pathloss.FreeSpacePathLoss\""
par VideoStreamingShowcase.radioMedium.pathLoss alpha 2
par VideoStreamingShowcase.radioMedium.pathLoss systemLoss 0dB
attr unit dB
par VideoStreamingShowcase.radioMedium.mediumLimitCache typename "\"inet.physicallayer.wireless.common.medium.MediumLimitCache\""
par VideoStreamingShowcase.radioMedium.mediumLimitCache centerFrequency 2.4e+09Hz
attr unit Hz
par VideoStreamingShowcase.radioMedium.mediumLimitCache maxSpeed "nan mps"
attr unit mps
par VideoStreamingShowcase.radioMedium.mediumLimitCache maxTransmissionPower "nan W"
attr unit W
par VideoStreamingShowcase.radioMedium.mediumLimitCache minInterferencePower -110dBm
attr unit dBm
par VideoStreamingShowcase.radioMedium.mediumLimitCache minReceptionPower -85dBm
attr unit dBm
par VideoStreamingShowcase.radioMedium.mediumLimitCache maxAntennaGain 0dB
attr unit dB
par VideoStreamingShowcase.radioMedium.mediumLimitCache minInterferenceTime 1e-12s
attr unit s
par VideoStreamingShowcase.radioMedium.mediumLimitCache maxTransmissionDuration 0.01s
attr unit s
par VideoStreamingShowcase.radioMedium.mediumLimitCache maxCommunicationRange "nan m"
attr unit m
par VideoStreamingShowcase.radioMedium.mediumLimitCache maxInterferenceRange "nan m"
attr unit m
par VideoStreamingShowcase.radioMedium.communicationCache typename "\"inet.physicallayer.wireless.common.communicationcache.VectorCommunicationCache\""
par VideoStreamingShowcase.radioMedium typename "\"inet.physicallayer.wireless.ieee80211.packetlevel.Ieee80211ScalarRadioMedium\""
par VideoStreamingShowcase.radioMedium physicalEnvironmentModule "\"physicalEnvironment\""
par VideoStreamingShowcase.radioMedium signalAnalogRepresentation "\"scalar\""
attr enum unitDisk,scalar,dimensional
par VideoStreamingShowcase.radioMedium rangeFilter "\"\""
par VideoStreamingShowcase.radioMedium radioModeFilter false
par VideoStreamingShowcase.radioMedium listeningFilter false
par VideoStreamingShowcase.radioMedium macAddressFilter false
par VideoStreamingShowcase.radioMedium recordTransmissionLog false
par VideoStreamingShowcase.radioMedium recordReceptionLog false
scalar VideoStreamingShowcase.radioMedium "transmission count" 7
scalar VideoStreamingShowcase.radioMedium "signal send count" 14
scalar VideoStreamingShowcase.radioMedium "reception computation count" 14
scalar VideoStreamingShowcase.radioMedium "interference computation count" 33
scalar VideoStreamingShowcase.radioMedium "reception decision computation count" 4
scalar VideoStreamingShowcase.radioMedium "listening decision computation count" 25
scalar VideoStreamingShowcase.radioMedium "reception cache hit" 70.212765957447
attr unit %
scalar VideoStreamingShowcase.radioMedium "interference cache hit" 66.666666666667
attr unit %
scalar VideoStreamingShowcase.radioMedium "noise cache hit" 0
attr unit %
scalar VideoStreamingShowcase.radioMedium "snir cache hit" 50
attr unit %
scalar VideoStreamingShowcase.radioMedium "reception decision cache hit" 50
attr unit %
scalar VideoStreamingShowcase.radioMedium "reception result cache hit" 0
attr unit %
par VideoStreamingShowcase typename "\"inet.showcases.emulation.videostreaming.VideoStreamingShowcase\""

